LTspice 24.0.9 for Windows
Start Time: Sat Feb 17 11:19:22 2024

   --- Expanded Deck Component Count ---
B's 96
C's 62
D's 8
G's 16
M's 48
R's 106
S's 644
V's 10
tot: 990


    --- Expanded Netlist ---
* C:\Users\Fuguru\OneDrive\Documents\LTspice\ic_lp_filter.asc
v1 n001 0 3.3
c:u1:1a n006 n010 53.85p
c:u1:1b n007 out 39.17p
c:u1:2b n003 u1:12 87.97p
c:u1:2a n002 u1:10 64.24p
r:u1:i6 n010 u1:19 50k
r:u1:i18 out u1:14 50k
r:u1:i7 u1:19 u1:10 40k
r:u1:i9 u1:14 u1:12 40k
c:u1:para n002 0 4.5p
c:u1:parb n003 0 4.5p
r:u1:i20 u1:17 n012 20k
r:u1:i19 n012 u1:18 20k
m:u1:i26:1 u1:i26:7 u1:i26:3 u1:i26:5 u1:i26:5 u1:i26:p l=3e-6 w=1200e-6
m:u1:i26:2 u1:i26:6 n006 u1:i26:5 u1:i26:5 u1:i26:p l=3e-6 w=1200e-6
r:u1:i26:i1 u1:i26:7 0 1.6k
r:u1:i26:i2 u1:i26:6 0 1.6k
b:u1:i26:§g1 u1:i26:12a u1:i26:5a i=15e-6+1e-6*v(n001,0)
b:u1:i26:§g2 u1:i26:12bb u1:i26:5bb i=65e-6+8e-6*v(n001,0)
s:u1:i26:sw1:1 u1:i26:12a n001 u1:i26:3a 0 u1:i26:sw1:swa 
s:u1:i26:sw2:1 u1:i26:12b n001 u1:i26:3a 0 u1:i26:sw2:swb 
s:u1:i26:sw3:1 0 u1:i26:12a u1:i26:3a 0 u1:i26:sw3:swb 
s:u1:i26:sw4:1 0 u1:i26:12b u1:i26:3a 0 u1:i26:sw4:swa 
s:u1:i26:sw5:1 u1:i26:5 u1:i26:5a u1:i26:3a 0 u1:i26:sw5:swa 
s:u1:i26:sw6:1 u1:i26:5 u1:i26:5b u1:i26:3a 0 u1:i26:sw6:swb 
s:u1:i26:sw7:1 0 u1:i26:5a u1:i26:3a 0 u1:i26:sw7:swb 
s:u1:i26:sw8:1 0 u1:i26:5b u1:i26:3a 0 u1:i26:sw8:swa 
s:u1:i26:sw9:1 u1:i26:12bb u1:i26:12b 0 0 u1:i26:sw9:swa 
s:u1:i26:sw10:1 0 u1:i26:12bb 0 0 u1:i26:sw10:swb 
s:u1:i26:s11:1 u1:i26:5b u1:i26:5bb 0 0 u1:i26:s11:swa 
s:u1:i26:s12:1 0 u1:i26:5bb 0 0 u1:i26:s12:swb 
v:u1:i26:1 n001 u1:i26:4 .75
d:u1:i26:1 u1:i26:5 u1:i26:4 u1:i26:dx 
r:u1:i26:n u1:i26:3 u1:i26:10 700
b:u1:i26:§evos u1:i26:10 n012 v=-.70m+v(u1:i26:17,u1:i26:15)+v(u1:i26:19,u1:i26:15)
s:u1:i26:i10:i25:1 u1:i26:i10:n_1 n001 u1:i26:n_2 0 u1:i26:i10:i25:swp 
s:u1:i26:i10:i27:1 u1:i26:i10:qb u1:i26:i10:n_1 u1:i26:n_3 0 u1:i26:i10:i27:swp 
s:u1:i26:i10:i26:1 u1:i26:3a n001 u1:i26:i10:qb 0 u1:i26:i10:i26:swp 
s:u1:i26:i10:i24:1 0 u1:i26:i10:qb u1:i26:n_2 0 u1:i26:i10:i24:swn 
s:u1:i26:i10:i23:1 0 u1:i26:i10:qb u1:i26:n_3 0 u1:i26:i10:i23:swn 
s:u1:i26:i10:i22:1 0 u1:i26:3a u1:i26:i10:qb 0 u1:i26:i10:i22:swn 
s:u1:i26:i8:1 u1:i26:n_2 n001 u1:1 0 u1:i26:i8:swn 
s:u1:i26:i9:1 u1:i26:n_3 n001 0 0 u1:i26:i9:swn 
r:u1:i26:i6 u1:i26:n_2 0 10meg
r:u1:i26:i7 u1:i26:n_3 0 10meg
b:u1:i26:§ecm u1:i26:16 u1:i26:15 v=.35*v(0,u1:i26:15)+.35*v(n006,u1:i26:15)
r:u1:i26:cm1 u1:i26:16 u1:i26:17 70e3
r:u1:i26:cm2 u1:i26:17 u1:i26:15 10
c:u1:i26:cm u1:i26:16 u1:i26:17 6.43e-12
r:u1:i26:ps1 u1:i26:18 u1:i26:19 4.5e3
r:u1:i26:ps2 u1:i26:19 u1:i26:15 1
c:u1:i26:ps u1:i26:18 u1:i26:19 100p
b:u1:i26:§eps u1:i26:18 0 v=v(n001,0)
b:u1:i26:§e2 u1:i26:15 0 v=.5*v(n001)+.5*v(0)
g:u1:i26:is1 u1:i26:11a u1:i26:11c n001 0 .035m
g:u1:i26:is2 u1:i26:11bb u1:i26:11dd n001 0 .2m
s:u1:i26:sw11:1 u1:i26:11a n001 u1:i26:3a 0 u1:i26:sw11:swa 
s:u1:i26:sw12:1 u1:i26:11b n001 u1:i26:3a 0 u1:i26:sw12:swb 
s:u1:i26:sw13:1 0 u1:i26:11c u1:i26:3a 0 u1:i26:sw13:swa 
s:u1:i26:sw14:1 0 u1:i26:11d u1:i26:3a 0 u1:i26:sw14:swb 
s:u1:i26:sw15:1 0 u1:i26:11a u1:i26:3a 0 u1:i26:sw15:swb 
s:u1:i26:sw16:1 0 u1:i26:11b u1:i26:3a 0 u1:i26:sw16:swa 
s:u1:i26:sw17:1 0 u1:i26:11c u1:i26:3a 0 u1:i26:sw17:swb 
s:u1:i26:sw18:1 0 u1:i26:11d u1:i26:3a 0 u1:i26:sw18:swa 
s:u1:i26:sw19:1 u1:i26:11b u1:i26:11bb 0 0 u1:i26:sw19:swa 
s:u1:i26:sw20:1 0 u1:i26:11bb 0 0 u1:i26:sw20:swb 
s:u1:i26:s21:1 u1:i26:11d u1:i26:11dd 0 0 u1:i26:s21:swa 
s:u1:i26:s22:1 0 u1:i26:11dd 0 0 u1:i26:s22:swb 
b:u1:i26:§e1a u1:i26:13a u1:i26:15a v=4*v(u1:i26:7,u1:i26:6)
b:u1:i26:§e1b u1:i26:13bb u1:i26:15bb v=8*v(u1:i26:7,u1:i26:6)
r:u1:i26:1 u1:i26:13 u1:i26:14 5e+3
c:u1:i26:1a u1:i26:14a u1:i26:14c 13.5e-12
c:u1:i26:1b u1:i26:14bb u1:i26:14dd 2e-12
s:u1:i26:sw21:1 u1:i26:13a u1:i26:13 u1:i26:3a 0 u1:i26:sw21:swa 
s:u1:i26:sw22:1 u1:i26:13b u1:i26:13 u1:i26:3a 0 u1:i26:sw22:swb 
s:u1:i26:sw23:1 u1:i26:15 u1:i26:15a u1:i26:3a 0 u1:i26:sw23:swa 
s:u1:i26:sw24:1 u1:i26:15 u1:i26:15b u1:i26:3a 0 u1:i26:sw24:swb 
s:u1:i26:sw25:1 0 u1:i26:13a u1:i26:3a 0 u1:i26:sw25:swb 
s:u1:i26:sw26:1 0 u1:i26:15a u1:i26:3a 0 u1:i26:sw26:swb 
s:u1:i26:sw27:1 0 u1:i26:13b u1:i26:3a 0 u1:i26:sw27:swa 
s:u1:i26:sw28:1 0 u1:i26:15b u1:i26:3a 0 u1:i26:sw28:swa 
s:u1:i26:s29:1 u1:i26:13bb u1:i26:13b 0 0 u1:i26:s29:swa 
s:u1:i26:s30:1 0 u1:i26:13bb 0 0 u1:i26:s30:swb 
s:u1:i26:s31:1 u1:i26:15b u1:i26:15bb 0 0 u1:i26:s31:swa 
s:u1:i26:s32:1 0 u1:i26:15bb 0 0 u1:i26:s32:swb 
s:u1:i26:s33:1 u1:i26:14bb u1:i26:14b 0 0 u1:i26:s33:swa 
s:u1:i26:s34:1 0 u1:i26:14bb 0 0 u1:i26:s34:swb 
s:u1:i26:s35:1 u1:i26:14d u1:i26:14dd 0 0 u1:i26:s35:swa 
s:u1:i26:s36:1 0 u1:i26:14dd 0 0 u1:i26:s36:swb 
s:u1:i26:sw29:1 u1:i26:14a u1:i26:14 u1:i26:3a 0 u1:i26:sw29:swa 
s:u1:i26:sw30:1 u1:i26:14b u1:i26:14 u1:i26:3a 0 u1:i26:sw30:swb 
s:u1:i26:sw31:1 u1:i26:15 u1:i26:14c u1:i26:3a 0 u1:i26:sw31:swa 
s:u1:i26:sw32:1 u1:i26:15 u1:i26:14d u1:i26:3a 0 u1:i26:sw32:swb 
s:u1:i26:sw33:1 0 u1:i26:14a u1:i26:3a 0 u1:i26:sw33:swb 
s:u1:i26:sw34:1 0 u1:i26:14b u1:i26:3a 0 u1:i26:sw34:swa 
s:u1:i26:sw35:1 0 u1:i26:14c u1:i26:3a 0 u1:i26:sw35:swb 
s:u1:i26:sw36:1 0 u1:i26:14d u1:i26:3a 0 u1:i26:sw36:swa 
m:u1:i26:3 n010 u1:i26:23 n001 n001 u1:i26:p l=3e-6 w=1400e-6
m:u1:i26:4 n010 u1:i26:24 0 0 u1:i26:n l=3e-6 w=840e-6
m:u1:i26:5 u1:i26:23 u1:i26:23 n001 n001 u1:i26:p l=6e-6 w=.35e-6
m:u1:i26:6 u1:i26:24 u1:i26:24 0 0 u1:i26:n l=6e-6 w=.21e-6
b:u1:i26:§gm5a u1:i26:23a u1:i26:23c i=8e-9+2.1e-9*v(n001,0)+1.08e-4*v(u1:i26:15,u1:i26:14)
b:u1:i26:§gm6a u1:i26:12a u1:i26:12c i=8e-9+2.1e-9*v(n001,0)+1.08e-4*v(u1:i26:14,u1:i26:15)
b:u1:i26:§gm5b u1:i26:23bb u1:i26:23dd i=5e-8+2.24e-8*v(n001,0)+1.08e-4*v(u1:i26:15,u1:i26:14)
b:u1:i26:§gm6b u1:i26:12bb u1:i26:12dd i=5e-8+2.24e-8*v(n001,0)+1.08e-4*v(u1:i26:14,u1:i26:15)
c:u1:i26:o1 n010 u1:i26:23 17e-12
c:u1:i26:o2 n010 u1:i26:24 17e-12
s:u1:i26:sw37:1 u1:i26:23a u1:i26:23 u1:i26:3a 0 u1:i26:sw37:swa 
s:u1:i26:sw38:1 0 u1:i26:23c u1:i26:3a 0 u1:i26:sw38:swa 
s:u1:i26:sw39:1 u1:i26:23b u1:i26:23 u1:i26:3a 0 u1:i26:sw39:swb 
s:u1:i26:sw40:1 0 u1:i26:23d u1:i26:3a 0 u1:i26:sw40:swb 
s:u1:i26:sw41:1 0 u1:i26:23a u1:i26:3a 0 u1:i26:sw41:swb 
s:u1:i26:sw42:1 0 u1:i26:23b u1:i26:3a 0 u1:i26:sw42:swa 
s:u1:i26:sw43:1 0 u1:i26:23c u1:i26:3a 0 u1:i26:sw43:swb 
s:u1:i26:sw44:1 0 u1:i26:23d u1:i26:3a 0 u1:i26:sw44:swa 
s:u1:i26:sw45:1 u1:i26:23bb u1:i26:23b 0 0 u1:i26:sw45:swa 
s:u1:i26:sw46:1 0 u1:i26:23bb 0 0 u1:i26:sw46:swb 
s:u1:i26:s47:1 u1:i26:23d u1:i26:23dd 0 0 u1:i26:s47:swa 
s:u1:i26:s48:1 0 u1:i26:23dd 0 0 u1:i26:s48:swb 
s:u1:i26:sw47:1 u1:i26:12a n001 u1:i26:3a 0 u1:i26:sw47:swa 
s:u1:i26:sw48:1 u1:i26:24 u1:i26:12c u1:i26:3a 0 u1:i26:sw48:swa 
s:u1:i26:sw49:1 u1:i26:12b n001 u1:i26:3a 0 u1:i26:sw49:swb 
s:u1:i26:sw50:1 u1:i26:24 u1:i26:12d u1:i26:3a 0 u1:i26:sw50:swb 
s:u1:i26:sw51:1 0 u1:i26:12a u1:i26:3a 0 u1:i26:sw51:swb 
s:u1:i26:sw52:1 0 u1:i26:12b u1:i26:3a 0 u1:i26:sw52:swa 
s:u1:i26:sw53:1 0 u1:i26:12c u1:i26:3a 0 u1:i26:sw53:swb 
s:u1:i26:sw54:1 0 u1:i26:12d u1:i26:3a 0 u1:i26:sw54:swa 
s:u1:i26:s55:1 u1:i26:12bb u1:i26:12b 0 0 u1:i26:s55:swa 
s:u1:i26:s56:1 0 u1:i26:12bb 0 0 u1:i26:s56:swb 
s:u1:i26:s57:1 u1:i26:12d u1:i26:12dd 0 0 u1:i26:s57:swa 
s:u1:i26:s58:1 0 u1:i26:12dd 0 0 u1:i26:s58:swb 
m:u1:i25:1 u1:i25:7 u1:i25:3 u1:i25:5 u1:i25:5 u1:i25:p l=3e-6 w=1200e-6
m:u1:i25:2 u1:i25:6 n007 u1:i25:5 u1:i25:5 u1:i25:p l=3e-6 w=1200e-6
r:u1:i25:i1 u1:i25:7 0 1.6k
r:u1:i25:i2 u1:i25:6 0 1.6k
b:u1:i25:§g1 u1:i25:12a u1:i25:5a i=15e-6+1e-6*v(n001,0)
b:u1:i25:§g2 u1:i25:12bb u1:i25:5bb i=65e-6+8e-6*v(n001,0)
s:u1:i25:sw1:1 u1:i25:12a n001 u1:i25:3a 0 u1:i25:sw1:swa 
s:u1:i25:sw2:1 u1:i25:12b n001 u1:i25:3a 0 u1:i25:sw2:swb 
s:u1:i25:sw3:1 0 u1:i25:12a u1:i25:3a 0 u1:i25:sw3:swb 
s:u1:i25:sw4:1 0 u1:i25:12b u1:i25:3a 0 u1:i25:sw4:swa 
s:u1:i25:sw5:1 u1:i25:5 u1:i25:5a u1:i25:3a 0 u1:i25:sw5:swa 
s:u1:i25:sw6:1 u1:i25:5 u1:i25:5b u1:i25:3a 0 u1:i25:sw6:swb 
s:u1:i25:sw7:1 0 u1:i25:5a u1:i25:3a 0 u1:i25:sw7:swb 
s:u1:i25:sw8:1 0 u1:i25:5b u1:i25:3a 0 u1:i25:sw8:swa 
s:u1:i25:sw9:1 u1:i25:12bb u1:i25:12b 0 0 u1:i25:sw9:swa 
s:u1:i25:sw10:1 0 u1:i25:12bb 0 0 u1:i25:sw10:swb 
s:u1:i25:s11:1 u1:i25:5b u1:i25:5bb 0 0 u1:i25:s11:swa 
s:u1:i25:s12:1 0 u1:i25:5bb 0 0 u1:i25:s12:swb 
v:u1:i25:1 n001 u1:i25:4 .75
d:u1:i25:1 u1:i25:5 u1:i25:4 u1:i25:dx 
r:u1:i25:n u1:i25:3 u1:i25:10 700
b:u1:i25:§evos u1:i25:10 n012 v=-.70m+v(u1:i25:17,u1:i25:15)+v(u1:i25:19,u1:i25:15)
s:u1:i25:i10:i25:1 u1:i25:i10:n_1 n001 u1:i25:n_2 0 u1:i25:i10:i25:swp 
s:u1:i25:i10:i27:1 u1:i25:i10:qb u1:i25:i10:n_1 u1:i25:n_3 0 u1:i25:i10:i27:swp 
s:u1:i25:i10:i26:1 u1:i25:3a n001 u1:i25:i10:qb 0 u1:i25:i10:i26:swp 
s:u1:i25:i10:i24:1 0 u1:i25:i10:qb u1:i25:n_2 0 u1:i25:i10:i24:swn 
s:u1:i25:i10:i23:1 0 u1:i25:i10:qb u1:i25:n_3 0 u1:i25:i10:i23:swn 
s:u1:i25:i10:i22:1 0 u1:i25:3a u1:i25:i10:qb 0 u1:i25:i10:i22:swn 
s:u1:i25:i8:1 u1:i25:n_2 n001 u1:1 0 u1:i25:i8:swn 
s:u1:i25:i9:1 u1:i25:n_3 n001 0 0 u1:i25:i9:swn 
r:u1:i25:i6 u1:i25:n_2 0 10meg
r:u1:i25:i7 u1:i25:n_3 0 10meg
b:u1:i25:§ecm u1:i25:16 u1:i25:15 v=.35*v(0,u1:i25:15)+.35*v(n007,u1:i25:15)
r:u1:i25:cm1 u1:i25:16 u1:i25:17 70e3
r:u1:i25:cm2 u1:i25:17 u1:i25:15 10
c:u1:i25:cm u1:i25:16 u1:i25:17 6.43e-12
r:u1:i25:ps1 u1:i25:18 u1:i25:19 4.5e3
r:u1:i25:ps2 u1:i25:19 u1:i25:15 1
c:u1:i25:ps u1:i25:18 u1:i25:19 100p
b:u1:i25:§eps u1:i25:18 0 v=v(n001,0)
b:u1:i25:§e2 u1:i25:15 0 v=.5*v(n001)+.5*v(0)
g:u1:i25:is1 u1:i25:11a u1:i25:11c n001 0 .035m
g:u1:i25:is2 u1:i25:11bb u1:i25:11dd n001 0 .2m
s:u1:i25:sw11:1 u1:i25:11a n001 u1:i25:3a 0 u1:i25:sw11:swa 
s:u1:i25:sw12:1 u1:i25:11b n001 u1:i25:3a 0 u1:i25:sw12:swb 
s:u1:i25:sw13:1 0 u1:i25:11c u1:i25:3a 0 u1:i25:sw13:swa 
s:u1:i25:sw14:1 0 u1:i25:11d u1:i25:3a 0 u1:i25:sw14:swb 
s:u1:i25:sw15:1 0 u1:i25:11a u1:i25:3a 0 u1:i25:sw15:swb 
s:u1:i25:sw16:1 0 u1:i25:11b u1:i25:3a 0 u1:i25:sw16:swa 
s:u1:i25:sw17:1 0 u1:i25:11c u1:i25:3a 0 u1:i25:sw17:swb 
s:u1:i25:sw18:1 0 u1:i25:11d u1:i25:3a 0 u1:i25:sw18:swa 
s:u1:i25:sw19:1 u1:i25:11b u1:i25:11bb 0 0 u1:i25:sw19:swa 
s:u1:i25:sw20:1 0 u1:i25:11bb 0 0 u1:i25:sw20:swb 
s:u1:i25:s21:1 u1:i25:11d u1:i25:11dd 0 0 u1:i25:s21:swa 
s:u1:i25:s22:1 0 u1:i25:11dd 0 0 u1:i25:s22:swb 
b:u1:i25:§e1a u1:i25:13a u1:i25:15a v=4*v(u1:i25:7,u1:i25:6)
b:u1:i25:§e1b u1:i25:13bb u1:i25:15bb v=8*v(u1:i25:7,u1:i25:6)
r:u1:i25:1 u1:i25:13 u1:i25:14 5e+3
c:u1:i25:1a u1:i25:14a u1:i25:14c 13.5e-12
c:u1:i25:1b u1:i25:14bb u1:i25:14dd 2e-12
s:u1:i25:sw21:1 u1:i25:13a u1:i25:13 u1:i25:3a 0 u1:i25:sw21:swa 
s:u1:i25:sw22:1 u1:i25:13b u1:i25:13 u1:i25:3a 0 u1:i25:sw22:swb 
s:u1:i25:sw23:1 u1:i25:15 u1:i25:15a u1:i25:3a 0 u1:i25:sw23:swa 
s:u1:i25:sw24:1 u1:i25:15 u1:i25:15b u1:i25:3a 0 u1:i25:sw24:swb 
s:u1:i25:sw25:1 0 u1:i25:13a u1:i25:3a 0 u1:i25:sw25:swb 
s:u1:i25:sw26:1 0 u1:i25:15a u1:i25:3a 0 u1:i25:sw26:swb 
s:u1:i25:sw27:1 0 u1:i25:13b u1:i25:3a 0 u1:i25:sw27:swa 
s:u1:i25:sw28:1 0 u1:i25:15b u1:i25:3a 0 u1:i25:sw28:swa 
s:u1:i25:s29:1 u1:i25:13bb u1:i25:13b 0 0 u1:i25:s29:swa 
s:u1:i25:s30:1 0 u1:i25:13bb 0 0 u1:i25:s30:swb 
s:u1:i25:s31:1 u1:i25:15b u1:i25:15bb 0 0 u1:i25:s31:swa 
s:u1:i25:s32:1 0 u1:i25:15bb 0 0 u1:i25:s32:swb 
s:u1:i25:s33:1 u1:i25:14bb u1:i25:14b 0 0 u1:i25:s33:swa 
s:u1:i25:s34:1 0 u1:i25:14bb 0 0 u1:i25:s34:swb 
s:u1:i25:s35:1 u1:i25:14d u1:i25:14dd 0 0 u1:i25:s35:swa 
s:u1:i25:s36:1 0 u1:i25:14dd 0 0 u1:i25:s36:swb 
s:u1:i25:sw29:1 u1:i25:14a u1:i25:14 u1:i25:3a 0 u1:i25:sw29:swa 
s:u1:i25:sw30:1 u1:i25:14b u1:i25:14 u1:i25:3a 0 u1:i25:sw30:swb 
s:u1:i25:sw31:1 u1:i25:15 u1:i25:14c u1:i25:3a 0 u1:i25:sw31:swa 
s:u1:i25:sw32:1 u1:i25:15 u1:i25:14d u1:i25:3a 0 u1:i25:sw32:swb 
s:u1:i25:sw33:1 0 u1:i25:14a u1:i25:3a 0 u1:i25:sw33:swb 
s:u1:i25:sw34:1 0 u1:i25:14b u1:i25:3a 0 u1:i25:sw34:swa 
s:u1:i25:sw35:1 0 u1:i25:14c u1:i25:3a 0 u1:i25:sw35:swb 
s:u1:i25:sw36:1 0 u1:i25:14d u1:i25:3a 0 u1:i25:sw36:swa 
m:u1:i25:3 out u1:i25:23 n001 n001 u1:i25:p l=3e-6 w=1400e-6
m:u1:i25:4 out u1:i25:24 0 0 u1:i25:n l=3e-6 w=840e-6
m:u1:i25:5 u1:i25:23 u1:i25:23 n001 n001 u1:i25:p l=6e-6 w=.35e-6
m:u1:i25:6 u1:i25:24 u1:i25:24 0 0 u1:i25:n l=6e-6 w=.21e-6
b:u1:i25:§gm5a u1:i25:23a u1:i25:23c i=8e-9+2.1e-9*v(n001,0)+1.08e-4*v(u1:i25:15,u1:i25:14)
b:u1:i25:§gm6a u1:i25:12a u1:i25:12c i=8e-9+2.1e-9*v(n001,0)+1.08e-4*v(u1:i25:14,u1:i25:15)
b:u1:i25:§gm5b u1:i25:23bb u1:i25:23dd i=5e-8+2.24e-8*v(n001,0)+1.08e-4*v(u1:i25:15,u1:i25:14)
b:u1:i25:§gm6b u1:i25:12bb u1:i25:12dd i=5e-8+2.24e-8*v(n001,0)+1.08e-4*v(u1:i25:14,u1:i25:15)
c:u1:i25:o1 out u1:i25:23 17e-12
c:u1:i25:o2 out u1:i25:24 17e-12
s:u1:i25:sw37:1 u1:i25:23a u1:i25:23 u1:i25:3a 0 u1:i25:sw37:swa 
s:u1:i25:sw38:1 0 u1:i25:23c u1:i25:3a 0 u1:i25:sw38:swa 
s:u1:i25:sw39:1 u1:i25:23b u1:i25:23 u1:i25:3a 0 u1:i25:sw39:swb 
s:u1:i25:sw40:1 0 u1:i25:23d u1:i25:3a 0 u1:i25:sw40:swb 
s:u1:i25:sw41:1 0 u1:i25:23a u1:i25:3a 0 u1:i25:sw41:swb 
s:u1:i25:sw42:1 0 u1:i25:23b u1:i25:3a 0 u1:i25:sw42:swa 
s:u1:i25:sw43:1 0 u1:i25:23c u1:i25:3a 0 u1:i25:sw43:swb 
s:u1:i25:sw44:1 0 u1:i25:23d u1:i25:3a 0 u1:i25:sw44:swa 
s:u1:i25:sw45:1 u1:i25:23bb u1:i25:23b 0 0 u1:i25:sw45:swa 
s:u1:i25:sw46:1 0 u1:i25:23bb 0 0 u1:i25:sw46:swb 
s:u1:i25:s47:1 u1:i25:23d u1:i25:23dd 0 0 u1:i25:s47:swa 
s:u1:i25:s48:1 0 u1:i25:23dd 0 0 u1:i25:s48:swb 
s:u1:i25:sw47:1 u1:i25:12a n001 u1:i25:3a 0 u1:i25:sw47:swa 
s:u1:i25:sw48:1 u1:i25:24 u1:i25:12c u1:i25:3a 0 u1:i25:sw48:swa 
s:u1:i25:sw49:1 u1:i25:12b n001 u1:i25:3a 0 u1:i25:sw49:swb 
s:u1:i25:sw50:1 u1:i25:24 u1:i25:12d u1:i25:3a 0 u1:i25:sw50:swb 
s:u1:i25:sw51:1 0 u1:i25:12a u1:i25:3a 0 u1:i25:sw51:swb 
s:u1:i25:sw52:1 0 u1:i25:12b u1:i25:3a 0 u1:i25:sw52:swa 
s:u1:i25:sw53:1 0 u1:i25:12c u1:i25:3a 0 u1:i25:sw53:swb 
s:u1:i25:sw54:1 0 u1:i25:12d u1:i25:3a 0 u1:i25:sw54:swa 
s:u1:i25:s55:1 u1:i25:12bb u1:i25:12b 0 0 u1:i25:s55:swa 
s:u1:i25:s56:1 0 u1:i25:12bb 0 0 u1:i25:s56:swb 
s:u1:i25:s57:1 u1:i25:12d u1:i25:12dd 0 0 u1:i25:s57:swa 
s:u1:i25:s58:1 0 u1:i25:12dd 0 0 u1:i25:s58:swb 
m:u1:i24:1 u1:i24:7 u1:i24:3 u1:i24:5 u1:i24:5 u1:i24:p l=3e-6 w=1200e-6
m:u1:i24:2 u1:i24:6 u1:14 u1:i24:5 u1:i24:5 u1:i24:p l=3e-6 w=1200e-6
r:u1:i24:i1 u1:i24:7 0 1.6k
r:u1:i24:i2 u1:i24:6 0 1.6k
b:u1:i24:§g1 u1:i24:12a u1:i24:5a i=15e-6+1e-6*v(n001,0)
b:u1:i24:§g2 u1:i24:12bb u1:i24:5bb i=65e-6+8e-6*v(n001,0)
s:u1:i24:sw1:1 u1:i24:12a n001 u1:i24:3a 0 u1:i24:sw1:swa 
s:u1:i24:sw2:1 u1:i24:12b n001 u1:i24:3a 0 u1:i24:sw2:swb 
s:u1:i24:sw3:1 0 u1:i24:12a u1:i24:3a 0 u1:i24:sw3:swb 
s:u1:i24:sw4:1 0 u1:i24:12b u1:i24:3a 0 u1:i24:sw4:swa 
s:u1:i24:sw5:1 u1:i24:5 u1:i24:5a u1:i24:3a 0 u1:i24:sw5:swa 
s:u1:i24:sw6:1 u1:i24:5 u1:i24:5b u1:i24:3a 0 u1:i24:sw6:swb 
s:u1:i24:sw7:1 0 u1:i24:5a u1:i24:3a 0 u1:i24:sw7:swb 
s:u1:i24:sw8:1 0 u1:i24:5b u1:i24:3a 0 u1:i24:sw8:swa 
s:u1:i24:sw9:1 u1:i24:12bb u1:i24:12b 0 0 u1:i24:sw9:swa 
s:u1:i24:sw10:1 0 u1:i24:12bb 0 0 u1:i24:sw10:swb 
s:u1:i24:s11:1 u1:i24:5b u1:i24:5bb 0 0 u1:i24:s11:swa 
s:u1:i24:s12:1 0 u1:i24:5bb 0 0 u1:i24:s12:swb 
v:u1:i24:1 n001 u1:i24:4 .75
d:u1:i24:1 u1:i24:5 u1:i24:4 u1:i24:dx 
r:u1:i24:n u1:i24:3 u1:i24:10 700
b:u1:i24:§evos u1:i24:10 n012 v=-.70m+v(u1:i24:17,u1:i24:15)+v(u1:i24:19,u1:i24:15)
s:u1:i24:i10:i25:1 u1:i24:i10:n_1 n001 u1:i24:n_2 0 u1:i24:i10:i25:swp 
s:u1:i24:i10:i27:1 u1:i24:i10:qb u1:i24:i10:n_1 u1:i24:n_3 0 u1:i24:i10:i27:swp 
s:u1:i24:i10:i26:1 u1:i24:3a n001 u1:i24:i10:qb 0 u1:i24:i10:i26:swp 
s:u1:i24:i10:i24:1 0 u1:i24:i10:qb u1:i24:n_2 0 u1:i24:i10:i24:swn 
s:u1:i24:i10:i23:1 0 u1:i24:i10:qb u1:i24:n_3 0 u1:i24:i10:i23:swn 
s:u1:i24:i10:i22:1 0 u1:i24:3a u1:i24:i10:qb 0 u1:i24:i10:i22:swn 
s:u1:i24:i8:1 u1:i24:n_2 n001 u1:1 0 u1:i24:i8:swn 
s:u1:i24:i9:1 u1:i24:n_3 n001 0 0 u1:i24:i9:swn 
r:u1:i24:i6 u1:i24:n_2 0 10meg
r:u1:i24:i7 u1:i24:n_3 0 10meg
b:u1:i24:§ecm u1:i24:16 u1:i24:15 v=.35*v(0,u1:i24:15)+.35*v(u1:14,u1:i24:15)
r:u1:i24:cm1 u1:i24:16 u1:i24:17 70e3
r:u1:i24:cm2 u1:i24:17 u1:i24:15 10
c:u1:i24:cm u1:i24:16 u1:i24:17 6.43e-12
r:u1:i24:ps1 u1:i24:18 u1:i24:19 4.5e3
r:u1:i24:ps2 u1:i24:19 u1:i24:15 1
c:u1:i24:ps u1:i24:18 u1:i24:19 100p
b:u1:i24:§eps u1:i24:18 0 v=v(n001,0)
b:u1:i24:§e2 u1:i24:15 0 v=.5*v(n001)+.5*v(0)
g:u1:i24:is1 u1:i24:11a u1:i24:11c n001 0 .035m
g:u1:i24:is2 u1:i24:11bb u1:i24:11dd n001 0 .2m
s:u1:i24:sw11:1 u1:i24:11a n001 u1:i24:3a 0 u1:i24:sw11:swa 
s:u1:i24:sw12:1 u1:i24:11b n001 u1:i24:3a 0 u1:i24:sw12:swb 
s:u1:i24:sw13:1 0 u1:i24:11c u1:i24:3a 0 u1:i24:sw13:swa 
s:u1:i24:sw14:1 0 u1:i24:11d u1:i24:3a 0 u1:i24:sw14:swb 
s:u1:i24:sw15:1 0 u1:i24:11a u1:i24:3a 0 u1:i24:sw15:swb 
s:u1:i24:sw16:1 0 u1:i24:11b u1:i24:3a 0 u1:i24:sw16:swa 
s:u1:i24:sw17:1 0 u1:i24:11c u1:i24:3a 0 u1:i24:sw17:swb 
s:u1:i24:sw18:1 0 u1:i24:11d u1:i24:3a 0 u1:i24:sw18:swa 
s:u1:i24:sw19:1 u1:i24:11b u1:i24:11bb 0 0 u1:i24:sw19:swa 
s:u1:i24:sw20:1 0 u1:i24:11bb 0 0 u1:i24:sw20:swb 
s:u1:i24:s21:1 u1:i24:11d u1:i24:11dd 0 0 u1:i24:s21:swa 
s:u1:i24:s22:1 0 u1:i24:11dd 0 0 u1:i24:s22:swb 
b:u1:i24:§e1a u1:i24:13a u1:i24:15a v=4*v(u1:i24:7,u1:i24:6)
b:u1:i24:§e1b u1:i24:13bb u1:i24:15bb v=8*v(u1:i24:7,u1:i24:6)
r:u1:i24:1 u1:i24:13 u1:i24:14 5e+3
c:u1:i24:1a u1:i24:14a u1:i24:14c 13.5e-12
c:u1:i24:1b u1:i24:14bb u1:i24:14dd 2e-12
s:u1:i24:sw21:1 u1:i24:13a u1:i24:13 u1:i24:3a 0 u1:i24:sw21:swa 
s:u1:i24:sw22:1 u1:i24:13b u1:i24:13 u1:i24:3a 0 u1:i24:sw22:swb 
s:u1:i24:sw23:1 u1:i24:15 u1:i24:15a u1:i24:3a 0 u1:i24:sw23:swa 
s:u1:i24:sw24:1 u1:i24:15 u1:i24:15b u1:i24:3a 0 u1:i24:sw24:swb 
s:u1:i24:sw25:1 0 u1:i24:13a u1:i24:3a 0 u1:i24:sw25:swb 
s:u1:i24:sw26:1 0 u1:i24:15a u1:i24:3a 0 u1:i24:sw26:swb 
s:u1:i24:sw27:1 0 u1:i24:13b u1:i24:3a 0 u1:i24:sw27:swa 
s:u1:i24:sw28:1 0 u1:i24:15b u1:i24:3a 0 u1:i24:sw28:swa 
s:u1:i24:s29:1 u1:i24:13bb u1:i24:13b 0 0 u1:i24:s29:swa 
s:u1:i24:s30:1 0 u1:i24:13bb 0 0 u1:i24:s30:swb 
s:u1:i24:s31:1 u1:i24:15b u1:i24:15bb 0 0 u1:i24:s31:swa 
s:u1:i24:s32:1 0 u1:i24:15bb 0 0 u1:i24:s32:swb 
s:u1:i24:s33:1 u1:i24:14bb u1:i24:14b 0 0 u1:i24:s33:swa 
s:u1:i24:s34:1 0 u1:i24:14bb 0 0 u1:i24:s34:swb 
s:u1:i24:s35:1 u1:i24:14d u1:i24:14dd 0 0 u1:i24:s35:swa 
s:u1:i24:s36:1 0 u1:i24:14dd 0 0 u1:i24:s36:swb 
s:u1:i24:sw29:1 u1:i24:14a u1:i24:14 u1:i24:3a 0 u1:i24:sw29:swa 
s:u1:i24:sw30:1 u1:i24:14b u1:i24:14 u1:i24:3a 0 u1:i24:sw30:swb 
s:u1:i24:sw31:1 u1:i24:15 u1:i24:14c u1:i24:3a 0 u1:i24:sw31:swa 
s:u1:i24:sw32:1 u1:i24:15 u1:i24:14d u1:i24:3a 0 u1:i24:sw32:swb 
s:u1:i24:sw33:1 0 u1:i24:14a u1:i24:3a 0 u1:i24:sw33:swb 
s:u1:i24:sw34:1 0 u1:i24:14b u1:i24:3a 0 u1:i24:sw34:swa 
s:u1:i24:sw35:1 0 u1:i24:14c u1:i24:3a 0 u1:i24:sw35:swb 
s:u1:i24:sw36:1 0 u1:i24:14d u1:i24:3a 0 u1:i24:sw36:swa 
m:u1:i24:3 u1:12 u1:i24:23 n001 n001 u1:i24:p l=3e-6 w=1400e-6
m:u1:i24:4 u1:12 u1:i24:24 0 0 u1:i24:n l=3e-6 w=840e-6
m:u1:i24:5 u1:i24:23 u1:i24:23 n001 n001 u1:i24:p l=6e-6 w=.35e-6
m:u1:i24:6 u1:i24:24 u1:i24:24 0 0 u1:i24:n l=6e-6 w=.21e-6
b:u1:i24:§gm5a u1:i24:23a u1:i24:23c i=8e-9+2.1e-9*v(n001,0)+1.08e-4*v(u1:i24:15,u1:i24:14)
b:u1:i24:§gm6a u1:i24:12a u1:i24:12c i=8e-9+2.1e-9*v(n001,0)+1.08e-4*v(u1:i24:14,u1:i24:15)
b:u1:i24:§gm5b u1:i24:23bb u1:i24:23dd i=5e-8+2.24e-8*v(n001,0)+1.08e-4*v(u1:i24:15,u1:i24:14)
b:u1:i24:§gm6b u1:i24:12bb u1:i24:12dd i=5e-8+2.24e-8*v(n001,0)+1.08e-4*v(u1:i24:14,u1:i24:15)
c:u1:i24:o1 u1:12 u1:i24:23 17e-12
c:u1:i24:o2 u1:12 u1:i24:24 17e-12
s:u1:i24:sw37:1 u1:i24:23a u1:i24:23 u1:i24:3a 0 u1:i24:sw37:swa 
s:u1:i24:sw38:1 0 u1:i24:23c u1:i24:3a 0 u1:i24:sw38:swa 
s:u1:i24:sw39:1 u1:i24:23b u1:i24:23 u1:i24:3a 0 u1:i24:sw39:swb 
s:u1:i24:sw40:1 0 u1:i24:23d u1:i24:3a 0 u1:i24:sw40:swb 
s:u1:i24:sw41:1 0 u1:i24:23a u1:i24:3a 0 u1:i24:sw41:swb 
s:u1:i24:sw42:1 0 u1:i24:23b u1:i24:3a 0 u1:i24:sw42:swa 
s:u1:i24:sw43:1 0 u1:i24:23c u1:i24:3a 0 u1:i24:sw43:swb 
s:u1:i24:sw44:1 0 u1:i24:23d u1:i24:3a 0 u1:i24:sw44:swa 
s:u1:i24:sw45:1 u1:i24:23bb u1:i24:23b 0 0 u1:i24:sw45:swa 
s:u1:i24:sw46:1 0 u1:i24:23bb 0 0 u1:i24:sw46:swb 
s:u1:i24:s47:1 u1:i24:23d u1:i24:23dd 0 0 u1:i24:s47:swa 
s:u1:i24:s48:1 0 u1:i24:23dd 0 0 u1:i24:s48:swb 
s:u1:i24:sw47:1 u1:i24:12a n001 u1:i24:3a 0 u1:i24:sw47:swa 
s:u1:i24:sw48:1 u1:i24:24 u1:i24:12c u1:i24:3a 0 u1:i24:sw48:swa 
s:u1:i24:sw49:1 u1:i24:12b n001 u1:i24:3a 0 u1:i24:sw49:swb 
s:u1:i24:sw50:1 u1:i24:24 u1:i24:12d u1:i24:3a 0 u1:i24:sw50:swb 
s:u1:i24:sw51:1 0 u1:i24:12a u1:i24:3a 0 u1:i24:sw51:swb 
s:u1:i24:sw52:1 0 u1:i24:12b u1:i24:3a 0 u1:i24:sw52:swa 
s:u1:i24:sw53:1 0 u1:i24:12c u1:i24:3a 0 u1:i24:sw53:swb 
s:u1:i24:sw54:1 0 u1:i24:12d u1:i24:3a 0 u1:i24:sw54:swa 
s:u1:i24:s55:1 u1:i24:12bb u1:i24:12b 0 0 u1:i24:s55:swa 
s:u1:i24:s56:1 0 u1:i24:12bb 0 0 u1:i24:s56:swb 
s:u1:i24:s57:1 u1:i24:12d u1:i24:12dd 0 0 u1:i24:s57:swa 
s:u1:i24:s58:1 0 u1:i24:12dd 0 0 u1:i24:s58:swb 
m:u1:i23:1 u1:i23:7 u1:i23:3 u1:i23:5 u1:i23:5 u1:i23:p l=3e-6 w=1200e-6
m:u1:i23:2 u1:i23:6 u1:19 u1:i23:5 u1:i23:5 u1:i23:p l=3e-6 w=1200e-6
r:u1:i23:i1 u1:i23:7 0 1.6k
r:u1:i23:i2 u1:i23:6 0 1.6k
b:u1:i23:§g1 u1:i23:12a u1:i23:5a i=15e-6+1e-6*v(n001,0)
b:u1:i23:§g2 u1:i23:12bb u1:i23:5bb i=65e-6+8e-6*v(n001,0)
s:u1:i23:sw1:1 u1:i23:12a n001 u1:i23:3a 0 u1:i23:sw1:swa 
s:u1:i23:sw2:1 u1:i23:12b n001 u1:i23:3a 0 u1:i23:sw2:swb 
s:u1:i23:sw3:1 0 u1:i23:12a u1:i23:3a 0 u1:i23:sw3:swb 
s:u1:i23:sw4:1 0 u1:i23:12b u1:i23:3a 0 u1:i23:sw4:swa 
s:u1:i23:sw5:1 u1:i23:5 u1:i23:5a u1:i23:3a 0 u1:i23:sw5:swa 
s:u1:i23:sw6:1 u1:i23:5 u1:i23:5b u1:i23:3a 0 u1:i23:sw6:swb 
s:u1:i23:sw7:1 0 u1:i23:5a u1:i23:3a 0 u1:i23:sw7:swb 
s:u1:i23:sw8:1 0 u1:i23:5b u1:i23:3a 0 u1:i23:sw8:swa 
s:u1:i23:sw9:1 u1:i23:12bb u1:i23:12b 0 0 u1:i23:sw9:swa 
s:u1:i23:sw10:1 0 u1:i23:12bb 0 0 u1:i23:sw10:swb 
s:u1:i23:s11:1 u1:i23:5b u1:i23:5bb 0 0 u1:i23:s11:swa 
s:u1:i23:s12:1 0 u1:i23:5bb 0 0 u1:i23:s12:swb 
v:u1:i23:1 n001 u1:i23:4 .75
d:u1:i23:1 u1:i23:5 u1:i23:4 u1:i23:dx 
r:u1:i23:n u1:i23:3 u1:i23:10 700
b:u1:i23:§evos u1:i23:10 n012 v=-.70m+v(u1:i23:17,u1:i23:15)+v(u1:i23:19,u1:i23:15)
s:u1:i23:i10:i25:1 u1:i23:i10:n_1 n001 u1:i23:n_2 0 u1:i23:i10:i25:swp 
s:u1:i23:i10:i27:1 u1:i23:i10:qb u1:i23:i10:n_1 u1:i23:n_3 0 u1:i23:i10:i27:swp 
s:u1:i23:i10:i26:1 u1:i23:3a n001 u1:i23:i10:qb 0 u1:i23:i10:i26:swp 
s:u1:i23:i10:i24:1 0 u1:i23:i10:qb u1:i23:n_2 0 u1:i23:i10:i24:swn 
s:u1:i23:i10:i23:1 0 u1:i23:i10:qb u1:i23:n_3 0 u1:i23:i10:i23:swn 
s:u1:i23:i10:i22:1 0 u1:i23:3a u1:i23:i10:qb 0 u1:i23:i10:i22:swn 
s:u1:i23:i8:1 u1:i23:n_2 n001 u1:1 0 u1:i23:i8:swn 
s:u1:i23:i9:1 u1:i23:n_3 n001 0 0 u1:i23:i9:swn 
r:u1:i23:i6 u1:i23:n_2 0 10meg
r:u1:i23:i7 u1:i23:n_3 0 10meg
b:u1:i23:§ecm u1:i23:16 u1:i23:15 v=.35*v(0,u1:i23:15)+.35*v(u1:19,u1:i23:15)
r:u1:i23:cm1 u1:i23:16 u1:i23:17 70e3
r:u1:i23:cm2 u1:i23:17 u1:i23:15 10
c:u1:i23:cm u1:i23:16 u1:i23:17 6.43e-12
r:u1:i23:ps1 u1:i23:18 u1:i23:19 4.5e3
r:u1:i23:ps2 u1:i23:19 u1:i23:15 1
c:u1:i23:ps u1:i23:18 u1:i23:19 100p
b:u1:i23:§eps u1:i23:18 0 v=v(n001,0)
b:u1:i23:§e2 u1:i23:15 0 v=.5*v(n001)+.5*v(0)
g:u1:i23:is1 u1:i23:11a u1:i23:11c n001 0 .035m
g:u1:i23:is2 u1:i23:11bb u1:i23:11dd n001 0 .2m
s:u1:i23:sw11:1 u1:i23:11a n001 u1:i23:3a 0 u1:i23:sw11:swa 
s:u1:i23:sw12:1 u1:i23:11b n001 u1:i23:3a 0 u1:i23:sw12:swb 
s:u1:i23:sw13:1 0 u1:i23:11c u1:i23:3a 0 u1:i23:sw13:swa 
s:u1:i23:sw14:1 0 u1:i23:11d u1:i23:3a 0 u1:i23:sw14:swb 
s:u1:i23:sw15:1 0 u1:i23:11a u1:i23:3a 0 u1:i23:sw15:swb 
s:u1:i23:sw16:1 0 u1:i23:11b u1:i23:3a 0 u1:i23:sw16:swa 
s:u1:i23:sw17:1 0 u1:i23:11c u1:i23:3a 0 u1:i23:sw17:swb 
s:u1:i23:sw18:1 0 u1:i23:11d u1:i23:3a 0 u1:i23:sw18:swa 
s:u1:i23:sw19:1 u1:i23:11b u1:i23:11bb 0 0 u1:i23:sw19:swa 
s:u1:i23:sw20:1 0 u1:i23:11bb 0 0 u1:i23:sw20:swb 
s:u1:i23:s21:1 u1:i23:11d u1:i23:11dd 0 0 u1:i23:s21:swa 
s:u1:i23:s22:1 0 u1:i23:11dd 0 0 u1:i23:s22:swb 
b:u1:i23:§e1a u1:i23:13a u1:i23:15a v=4*v(u1:i23:7,u1:i23:6)
b:u1:i23:§e1b u1:i23:13bb u1:i23:15bb v=8*v(u1:i23:7,u1:i23:6)
r:u1:i23:1 u1:i23:13 u1:i23:14 5e+3
c:u1:i23:1a u1:i23:14a u1:i23:14c 13.5e-12
c:u1:i23:1b u1:i23:14bb u1:i23:14dd 2e-12
s:u1:i23:sw21:1 u1:i23:13a u1:i23:13 u1:i23:3a 0 u1:i23:sw21:swa 
s:u1:i23:sw22:1 u1:i23:13b u1:i23:13 u1:i23:3a 0 u1:i23:sw22:swb 
s:u1:i23:sw23:1 u1:i23:15 u1:i23:15a u1:i23:3a 0 u1:i23:sw23:swa 
s:u1:i23:sw24:1 u1:i23:15 u1:i23:15b u1:i23:3a 0 u1:i23:sw24:swb 
s:u1:i23:sw25:1 0 u1:i23:13a u1:i23:3a 0 u1:i23:sw25:swb 
s:u1:i23:sw26:1 0 u1:i23:15a u1:i23:3a 0 u1:i23:sw26:swb 
s:u1:i23:sw27:1 0 u1:i23:13b u1:i23:3a 0 u1:i23:sw27:swa 
s:u1:i23:sw28:1 0 u1:i23:15b u1:i23:3a 0 u1:i23:sw28:swa 
s:u1:i23:s29:1 u1:i23:13bb u1:i23:13b 0 0 u1:i23:s29:swa 
s:u1:i23:s30:1 0 u1:i23:13bb 0 0 u1:i23:s30:swb 
s:u1:i23:s31:1 u1:i23:15b u1:i23:15bb 0 0 u1:i23:s31:swa 
s:u1:i23:s32:1 0 u1:i23:15bb 0 0 u1:i23:s32:swb 
s:u1:i23:s33:1 u1:i23:14bb u1:i23:14b 0 0 u1:i23:s33:swa 
s:u1:i23:s34:1 0 u1:i23:14bb 0 0 u1:i23:s34:swb 
s:u1:i23:s35:1 u1:i23:14d u1:i23:14dd 0 0 u1:i23:s35:swa 
s:u1:i23:s36:1 0 u1:i23:14dd 0 0 u1:i23:s36:swb 
s:u1:i23:sw29:1 u1:i23:14a u1:i23:14 u1:i23:3a 0 u1:i23:sw29:swa 
s:u1:i23:sw30:1 u1:i23:14b u1:i23:14 u1:i23:3a 0 u1:i23:sw30:swb 
s:u1:i23:sw31:1 u1:i23:15 u1:i23:14c u1:i23:3a 0 u1:i23:sw31:swa 
s:u1:i23:sw32:1 u1:i23:15 u1:i23:14d u1:i23:3a 0 u1:i23:sw32:swb 
s:u1:i23:sw33:1 0 u1:i23:14a u1:i23:3a 0 u1:i23:sw33:swb 
s:u1:i23:sw34:1 0 u1:i23:14b u1:i23:3a 0 u1:i23:sw34:swa 
s:u1:i23:sw35:1 0 u1:i23:14c u1:i23:3a 0 u1:i23:sw35:swb 
s:u1:i23:sw36:1 0 u1:i23:14d u1:i23:3a 0 u1:i23:sw36:swa 
m:u1:i23:3 u1:10 u1:i23:23 n001 n001 u1:i23:p l=3e-6 w=1400e-6
m:u1:i23:4 u1:10 u1:i23:24 0 0 u1:i23:n l=3e-6 w=840e-6
m:u1:i23:5 u1:i23:23 u1:i23:23 n001 n001 u1:i23:p l=6e-6 w=.35e-6
m:u1:i23:6 u1:i23:24 u1:i23:24 0 0 u1:i23:n l=6e-6 w=.21e-6
b:u1:i23:§gm5a u1:i23:23a u1:i23:23c i=8e-9+2.1e-9*v(n001,0)+1.08e-4*v(u1:i23:15,u1:i23:14)
b:u1:i23:§gm6a u1:i23:12a u1:i23:12c i=8e-9+2.1e-9*v(n001,0)+1.08e-4*v(u1:i23:14,u1:i23:15)
b:u1:i23:§gm5b u1:i23:23bb u1:i23:23dd i=5e-8+2.24e-8*v(n001,0)+1.08e-4*v(u1:i23:15,u1:i23:14)
b:u1:i23:§gm6b u1:i23:12bb u1:i23:12dd i=5e-8+2.24e-8*v(n001,0)+1.08e-4*v(u1:i23:14,u1:i23:15)
c:u1:i23:o1 u1:10 u1:i23:23 17e-12
c:u1:i23:o2 u1:10 u1:i23:24 17e-12
s:u1:i23:sw37:1 u1:i23:23a u1:i23:23 u1:i23:3a 0 u1:i23:sw37:swa 
s:u1:i23:sw38:1 0 u1:i23:23c u1:i23:3a 0 u1:i23:sw38:swa 
s:u1:i23:sw39:1 u1:i23:23b u1:i23:23 u1:i23:3a 0 u1:i23:sw39:swb 
s:u1:i23:sw40:1 0 u1:i23:23d u1:i23:3a 0 u1:i23:sw40:swb 
s:u1:i23:sw41:1 0 u1:i23:23a u1:i23:3a 0 u1:i23:sw41:swb 
s:u1:i23:sw42:1 0 u1:i23:23b u1:i23:3a 0 u1:i23:sw42:swa 
s:u1:i23:sw43:1 0 u1:i23:23c u1:i23:3a 0 u1:i23:sw43:swb 
s:u1:i23:sw44:1 0 u1:i23:23d u1:i23:3a 0 u1:i23:sw44:swa 
s:u1:i23:sw45:1 u1:i23:23bb u1:i23:23b 0 0 u1:i23:sw45:swa 
s:u1:i23:sw46:1 0 u1:i23:23bb 0 0 u1:i23:sw46:swb 
s:u1:i23:s47:1 u1:i23:23d u1:i23:23dd 0 0 u1:i23:s47:swa 
s:u1:i23:s48:1 0 u1:i23:23dd 0 0 u1:i23:s48:swb 
s:u1:i23:sw47:1 u1:i23:12a n001 u1:i23:3a 0 u1:i23:sw47:swa 
s:u1:i23:sw48:1 u1:i23:24 u1:i23:12c u1:i23:3a 0 u1:i23:sw48:swa 
s:u1:i23:sw49:1 u1:i23:12b n001 u1:i23:3a 0 u1:i23:sw49:swb 
s:u1:i23:sw50:1 u1:i23:24 u1:i23:12d u1:i23:3a 0 u1:i23:sw50:swb 
s:u1:i23:sw51:1 0 u1:i23:12a u1:i23:3a 0 u1:i23:sw51:swb 
s:u1:i23:sw52:1 0 u1:i23:12b u1:i23:3a 0 u1:i23:sw52:swa 
s:u1:i23:sw53:1 0 u1:i23:12c u1:i23:3a 0 u1:i23:sw53:swb 
s:u1:i23:sw54:1 0 u1:i23:12d u1:i23:3a 0 u1:i23:sw54:swa 
s:u1:i23:s55:1 u1:i23:12bb u1:i23:12b 0 0 u1:i23:s55:swa 
s:u1:i23:s56:1 0 u1:i23:12bb 0 0 u1:i23:s56:swb 
s:u1:i23:s57:1 u1:i23:12d u1:i23:12dd 0 0 u1:i23:s57:swa 
s:u1:i23:s58:1 0 u1:i23:12dd 0 0 u1:i23:s58:swb 
s:u1:s2:1 0 u1:18 0 0 u1:s2:swa 
s:u1:s1:1 u1:17 n001 0 0 u1:s1:swa 
r:u1:mike u1:1 n012 1g
c1 n012 0 .1µ
r1 n006 n002 320000 
r2 n010 n002 320000 
v2 in 0 1.66 ac 1
r3 n007 n003 320000 
r4 out n003 320000 
r5 n002 in 320000 
r6 n003 n010 320000 
c:u2:1a n008 n011 53.85p
c:u2:1b n009 out2 39.17p
c:u2:2b n005 u2:12 87.97p
c:u2:2a n004 u2:10 64.24p
r:u2:i6 n011 u2:19 50k
r:u2:i18 out2 u2:14 50k
r:u2:i7 u2:19 u2:10 40k
r:u2:i9 u2:14 u2:12 40k
c:u2:para n004 0 4.5p
c:u2:parb n005 0 4.5p
r:u2:i20 u2:17 n013 20k
r:u2:i19 n013 u2:18 20k
m:u2:i26:1 u2:i26:7 u2:i26:3 u2:i26:5 u2:i26:5 u2:i26:p l=3e-6 w=1200e-6
m:u2:i26:2 u2:i26:6 n008 u2:i26:5 u2:i26:5 u2:i26:p l=3e-6 w=1200e-6
r:u2:i26:i1 u2:i26:7 0 1.6k
r:u2:i26:i2 u2:i26:6 0 1.6k
b:u2:i26:§g1 u2:i26:12a u2:i26:5a i=15e-6+1e-6*v(n001,0)
b:u2:i26:§g2 u2:i26:12bb u2:i26:5bb i=65e-6+8e-6*v(n001,0)
s:u2:i26:sw1:1 u2:i26:12a n001 u2:i26:3a 0 u2:i26:sw1:swa 
s:u2:i26:sw2:1 u2:i26:12b n001 u2:i26:3a 0 u2:i26:sw2:swb 
s:u2:i26:sw3:1 0 u2:i26:12a u2:i26:3a 0 u2:i26:sw3:swb 
s:u2:i26:sw4:1 0 u2:i26:12b u2:i26:3a 0 u2:i26:sw4:swa 
s:u2:i26:sw5:1 u2:i26:5 u2:i26:5a u2:i26:3a 0 u2:i26:sw5:swa 
s:u2:i26:sw6:1 u2:i26:5 u2:i26:5b u2:i26:3a 0 u2:i26:sw6:swb 
s:u2:i26:sw7:1 0 u2:i26:5a u2:i26:3a 0 u2:i26:sw7:swb 
s:u2:i26:sw8:1 0 u2:i26:5b u2:i26:3a 0 u2:i26:sw8:swa 
s:u2:i26:sw9:1 u2:i26:12bb u2:i26:12b 0 0 u2:i26:sw9:swa 
s:u2:i26:sw10:1 0 u2:i26:12bb 0 0 u2:i26:sw10:swb 
s:u2:i26:s11:1 u2:i26:5b u2:i26:5bb 0 0 u2:i26:s11:swa 
s:u2:i26:s12:1 0 u2:i26:5bb 0 0 u2:i26:s12:swb 
v:u2:i26:1 n001 u2:i26:4 .75
d:u2:i26:1 u2:i26:5 u2:i26:4 u2:i26:dx 
r:u2:i26:n u2:i26:3 u2:i26:10 700
b:u2:i26:§evos u2:i26:10 n013 v=-.70m+v(u2:i26:17,u2:i26:15)+v(u2:i26:19,u2:i26:15)
s:u2:i26:i10:i25:1 u2:i26:i10:n_1 n001 u2:i26:n_2 0 u2:i26:i10:i25:swp 
s:u2:i26:i10:i27:1 u2:i26:i10:qb u2:i26:i10:n_1 u2:i26:n_3 0 u2:i26:i10:i27:swp 
s:u2:i26:i10:i26:1 u2:i26:3a n001 u2:i26:i10:qb 0 u2:i26:i10:i26:swp 
s:u2:i26:i10:i24:1 0 u2:i26:i10:qb u2:i26:n_2 0 u2:i26:i10:i24:swn 
s:u2:i26:i10:i23:1 0 u2:i26:i10:qb u2:i26:n_3 0 u2:i26:i10:i23:swn 
s:u2:i26:i10:i22:1 0 u2:i26:3a u2:i26:i10:qb 0 u2:i26:i10:i22:swn 
s:u2:i26:i8:1 u2:i26:n_2 n001 u2:1 0 u2:i26:i8:swn 
s:u2:i26:i9:1 u2:i26:n_3 n001 0 0 u2:i26:i9:swn 
r:u2:i26:i6 u2:i26:n_2 0 10meg
r:u2:i26:i7 u2:i26:n_3 0 10meg
b:u2:i26:§ecm u2:i26:16 u2:i26:15 v=.35*v(0,u2:i26:15)+.35*v(n008,u2:i26:15)
r:u2:i26:cm1 u2:i26:16 u2:i26:17 70e3
r:u2:i26:cm2 u2:i26:17 u2:i26:15 10
c:u2:i26:cm u2:i26:16 u2:i26:17 6.43e-12
r:u2:i26:ps1 u2:i26:18 u2:i26:19 4.5e3
r:u2:i26:ps2 u2:i26:19 u2:i26:15 1
c:u2:i26:ps u2:i26:18 u2:i26:19 100p
b:u2:i26:§eps u2:i26:18 0 v=v(n001,0)
b:u2:i26:§e2 u2:i26:15 0 v=.5*v(n001)+.5*v(0)
g:u2:i26:is1 u2:i26:11a u2:i26:11c n001 0 .035m
g:u2:i26:is2 u2:i26:11bb u2:i26:11dd n001 0 .2m
s:u2:i26:sw11:1 u2:i26:11a n001 u2:i26:3a 0 u2:i26:sw11:swa 
s:u2:i26:sw12:1 u2:i26:11b n001 u2:i26:3a 0 u2:i26:sw12:swb 
s:u2:i26:sw13:1 0 u2:i26:11c u2:i26:3a 0 u2:i26:sw13:swa 
s:u2:i26:sw14:1 0 u2:i26:11d u2:i26:3a 0 u2:i26:sw14:swb 
s:u2:i26:sw15:1 0 u2:i26:11a u2:i26:3a 0 u2:i26:sw15:swb 
s:u2:i26:sw16:1 0 u2:i26:11b u2:i26:3a 0 u2:i26:sw16:swa 
s:u2:i26:sw17:1 0 u2:i26:11c u2:i26:3a 0 u2:i26:sw17:swb 
s:u2:i26:sw18:1 0 u2:i26:11d u2:i26:3a 0 u2:i26:sw18:swa 
s:u2:i26:sw19:1 u2:i26:11b u2:i26:11bb 0 0 u2:i26:sw19:swa 
s:u2:i26:sw20:1 0 u2:i26:11bb 0 0 u2:i26:sw20:swb 
s:u2:i26:s21:1 u2:i26:11d u2:i26:11dd 0 0 u2:i26:s21:swa 
s:u2:i26:s22:1 0 u2:i26:11dd 0 0 u2:i26:s22:swb 
b:u2:i26:§e1a u2:i26:13a u2:i26:15a v=4*v(u2:i26:7,u2:i26:6)
b:u2:i26:§e1b u2:i26:13bb u2:i26:15bb v=8*v(u2:i26:7,u2:i26:6)
r:u2:i26:1 u2:i26:13 u2:i26:14 5e+3
c:u2:i26:1a u2:i26:14a u2:i26:14c 13.5e-12
c:u2:i26:1b u2:i26:14bb u2:i26:14dd 2e-12
s:u2:i26:sw21:1 u2:i26:13a u2:i26:13 u2:i26:3a 0 u2:i26:sw21:swa 
s:u2:i26:sw22:1 u2:i26:13b u2:i26:13 u2:i26:3a 0 u2:i26:sw22:swb 
s:u2:i26:sw23:1 u2:i26:15 u2:i26:15a u2:i26:3a 0 u2:i26:sw23:swa 
s:u2:i26:sw24:1 u2:i26:15 u2:i26:15b u2:i26:3a 0 u2:i26:sw24:swb 
s:u2:i26:sw25:1 0 u2:i26:13a u2:i26:3a 0 u2:i26:sw25:swb 
s:u2:i26:sw26:1 0 u2:i26:15a u2:i26:3a 0 u2:i26:sw26:swb 
s:u2:i26:sw27:1 0 u2:i26:13b u2:i26:3a 0 u2:i26:sw27:swa 
s:u2:i26:sw28:1 0 u2:i26:15b u2:i26:3a 0 u2:i26:sw28:swa 
s:u2:i26:s29:1 u2:i26:13bb u2:i26:13b 0 0 u2:i26:s29:swa 
s:u2:i26:s30:1 0 u2:i26:13bb 0 0 u2:i26:s30:swb 
s:u2:i26:s31:1 u2:i26:15b u2:i26:15bb 0 0 u2:i26:s31:swa 
s:u2:i26:s32:1 0 u2:i26:15bb 0 0 u2:i26:s32:swb 
s:u2:i26:s33:1 u2:i26:14bb u2:i26:14b 0 0 u2:i26:s33:swa 
s:u2:i26:s34:1 0 u2:i26:14bb 0 0 u2:i26:s34:swb 
s:u2:i26:s35:1 u2:i26:14d u2:i26:14dd 0 0 u2:i26:s35:swa 
s:u2:i26:s36:1 0 u2:i26:14dd 0 0 u2:i26:s36:swb 
s:u2:i26:sw29:1 u2:i26:14a u2:i26:14 u2:i26:3a 0 u2:i26:sw29:swa 
s:u2:i26:sw30:1 u2:i26:14b u2:i26:14 u2:i26:3a 0 u2:i26:sw30:swb 
s:u2:i26:sw31:1 u2:i26:15 u2:i26:14c u2:i26:3a 0 u2:i26:sw31:swa 
s:u2:i26:sw32:1 u2:i26:15 u2:i26:14d u2:i26:3a 0 u2:i26:sw32:swb 
s:u2:i26:sw33:1 0 u2:i26:14a u2:i26:3a 0 u2:i26:sw33:swb 
s:u2:i26:sw34:1 0 u2:i26:14b u2:i26:3a 0 u2:i26:sw34:swa 
s:u2:i26:sw35:1 0 u2:i26:14c u2:i26:3a 0 u2:i26:sw35:swb 
s:u2:i26:sw36:1 0 u2:i26:14d u2:i26:3a 0 u2:i26:sw36:swa 
m:u2:i26:3 n011 u2:i26:23 n001 n001 u2:i26:p l=3e-6 w=1400e-6
m:u2:i26:4 n011 u2:i26:24 0 0 u2:i26:n l=3e-6 w=840e-6
m:u2:i26:5 u2:i26:23 u2:i26:23 n001 n001 u2:i26:p l=6e-6 w=.35e-6
m:u2:i26:6 u2:i26:24 u2:i26:24 0 0 u2:i26:n l=6e-6 w=.21e-6
b:u2:i26:§gm5a u2:i26:23a u2:i26:23c i=8e-9+2.1e-9*v(n001,0)+1.08e-4*v(u2:i26:15,u2:i26:14)
b:u2:i26:§gm6a u2:i26:12a u2:i26:12c i=8e-9+2.1e-9*v(n001,0)+1.08e-4*v(u2:i26:14,u2:i26:15)
b:u2:i26:§gm5b u2:i26:23bb u2:i26:23dd i=5e-8+2.24e-8*v(n001,0)+1.08e-4*v(u2:i26:15,u2:i26:14)
b:u2:i26:§gm6b u2:i26:12bb u2:i26:12dd i=5e-8+2.24e-8*v(n001,0)+1.08e-4*v(u2:i26:14,u2:i26:15)
c:u2:i26:o1 n011 u2:i26:23 17e-12
c:u2:i26:o2 n011 u2:i26:24 17e-12
s:u2:i26:sw37:1 u2:i26:23a u2:i26:23 u2:i26:3a 0 u2:i26:sw37:swa 
s:u2:i26:sw38:1 0 u2:i26:23c u2:i26:3a 0 u2:i26:sw38:swa 
s:u2:i26:sw39:1 u2:i26:23b u2:i26:23 u2:i26:3a 0 u2:i26:sw39:swb 
s:u2:i26:sw40:1 0 u2:i26:23d u2:i26:3a 0 u2:i26:sw40:swb 
s:u2:i26:sw41:1 0 u2:i26:23a u2:i26:3a 0 u2:i26:sw41:swb 
s:u2:i26:sw42:1 0 u2:i26:23b u2:i26:3a 0 u2:i26:sw42:swa 
s:u2:i26:sw43:1 0 u2:i26:23c u2:i26:3a 0 u2:i26:sw43:swb 
s:u2:i26:sw44:1 0 u2:i26:23d u2:i26:3a 0 u2:i26:sw44:swa 
s:u2:i26:sw45:1 u2:i26:23bb u2:i26:23b 0 0 u2:i26:sw45:swa 
s:u2:i26:sw46:1 0 u2:i26:23bb 0 0 u2:i26:sw46:swb 
s:u2:i26:s47:1 u2:i26:23d u2:i26:23dd 0 0 u2:i26:s47:swa 
s:u2:i26:s48:1 0 u2:i26:23dd 0 0 u2:i26:s48:swb 
s:u2:i26:sw47:1 u2:i26:12a n001 u2:i26:3a 0 u2:i26:sw47:swa 
s:u2:i26:sw48:1 u2:i26:24 u2:i26:12c u2:i26:3a 0 u2:i26:sw48:swa 
s:u2:i26:sw49:1 u2:i26:12b n001 u2:i26:3a 0 u2:i26:sw49:swb 
s:u2:i26:sw50:1 u2:i26:24 u2:i26:12d u2:i26:3a 0 u2:i26:sw50:swb 
s:u2:i26:sw51:1 0 u2:i26:12a u2:i26:3a 0 u2:i26:sw51:swb 
s:u2:i26:sw52:1 0 u2:i26:12b u2:i26:3a 0 u2:i26:sw52:swa 
s:u2:i26:sw53:1 0 u2:i26:12c u2:i26:3a 0 u2:i26:sw53:swb 
s:u2:i26:sw54:1 0 u2:i26:12d u2:i26:3a 0 u2:i26:sw54:swa 
s:u2:i26:s55:1 u2:i26:12bb u2:i26:12b 0 0 u2:i26:s55:swa 
s:u2:i26:s56:1 0 u2:i26:12bb 0 0 u2:i26:s56:swb 
s:u2:i26:s57:1 u2:i26:12d u2:i26:12dd 0 0 u2:i26:s57:swa 
s:u2:i26:s58:1 0 u2:i26:12dd 0 0 u2:i26:s58:swb 
m:u2:i25:1 u2:i25:7 u2:i25:3 u2:i25:5 u2:i25:5 u2:i25:p l=3e-6 w=1200e-6
m:u2:i25:2 u2:i25:6 n009 u2:i25:5 u2:i25:5 u2:i25:p l=3e-6 w=1200e-6
r:u2:i25:i1 u2:i25:7 0 1.6k
r:u2:i25:i2 u2:i25:6 0 1.6k
b:u2:i25:§g1 u2:i25:12a u2:i25:5a i=15e-6+1e-6*v(n001,0)
b:u2:i25:§g2 u2:i25:12bb u2:i25:5bb i=65e-6+8e-6*v(n001,0)
s:u2:i25:sw1:1 u2:i25:12a n001 u2:i25:3a 0 u2:i25:sw1:swa 
s:u2:i25:sw2:1 u2:i25:12b n001 u2:i25:3a 0 u2:i25:sw2:swb 
s:u2:i25:sw3:1 0 u2:i25:12a u2:i25:3a 0 u2:i25:sw3:swb 
s:u2:i25:sw4:1 0 u2:i25:12b u2:i25:3a 0 u2:i25:sw4:swa 
s:u2:i25:sw5:1 u2:i25:5 u2:i25:5a u2:i25:3a 0 u2:i25:sw5:swa 
s:u2:i25:sw6:1 u2:i25:5 u2:i25:5b u2:i25:3a 0 u2:i25:sw6:swb 
s:u2:i25:sw7:1 0 u2:i25:5a u2:i25:3a 0 u2:i25:sw7:swb 
s:u2:i25:sw8:1 0 u2:i25:5b u2:i25:3a 0 u2:i25:sw8:swa 
s:u2:i25:sw9:1 u2:i25:12bb u2:i25:12b 0 0 u2:i25:sw9:swa 
s:u2:i25:sw10:1 0 u2:i25:12bb 0 0 u2:i25:sw10:swb 
s:u2:i25:s11:1 u2:i25:5b u2:i25:5bb 0 0 u2:i25:s11:swa 
s:u2:i25:s12:1 0 u2:i25:5bb 0 0 u2:i25:s12:swb 
v:u2:i25:1 n001 u2:i25:4 .75
d:u2:i25:1 u2:i25:5 u2:i25:4 u2:i25:dx 
r:u2:i25:n u2:i25:3 u2:i25:10 700
b:u2:i25:§evos u2:i25:10 n013 v=-.70m+v(u2:i25:17,u2:i25:15)+v(u2:i25:19,u2:i25:15)
s:u2:i25:i10:i25:1 u2:i25:i10:n_1 n001 u2:i25:n_2 0 u2:i25:i10:i25:swp 
s:u2:i25:i10:i27:1 u2:i25:i10:qb u2:i25:i10:n_1 u2:i25:n_3 0 u2:i25:i10:i27:swp 
s:u2:i25:i10:i26:1 u2:i25:3a n001 u2:i25:i10:qb 0 u2:i25:i10:i26:swp 
s:u2:i25:i10:i24:1 0 u2:i25:i10:qb u2:i25:n_2 0 u2:i25:i10:i24:swn 
s:u2:i25:i10:i23:1 0 u2:i25:i10:qb u2:i25:n_3 0 u2:i25:i10:i23:swn 
s:u2:i25:i10:i22:1 0 u2:i25:3a u2:i25:i10:qb 0 u2:i25:i10:i22:swn 
s:u2:i25:i8:1 u2:i25:n_2 n001 u2:1 0 u2:i25:i8:swn 
s:u2:i25:i9:1 u2:i25:n_3 n001 0 0 u2:i25:i9:swn 
r:u2:i25:i6 u2:i25:n_2 0 10meg
r:u2:i25:i7 u2:i25:n_3 0 10meg
b:u2:i25:§ecm u2:i25:16 u2:i25:15 v=.35*v(0,u2:i25:15)+.35*v(n009,u2:i25:15)
r:u2:i25:cm1 u2:i25:16 u2:i25:17 70e3
r:u2:i25:cm2 u2:i25:17 u2:i25:15 10
c:u2:i25:cm u2:i25:16 u2:i25:17 6.43e-12
r:u2:i25:ps1 u2:i25:18 u2:i25:19 4.5e3
r:u2:i25:ps2 u2:i25:19 u2:i25:15 1
c:u2:i25:ps u2:i25:18 u2:i25:19 100p
b:u2:i25:§eps u2:i25:18 0 v=v(n001,0)
b:u2:i25:§e2 u2:i25:15 0 v=.5*v(n001)+.5*v(0)
g:u2:i25:is1 u2:i25:11a u2:i25:11c n001 0 .035m
g:u2:i25:is2 u2:i25:11bb u2:i25:11dd n001 0 .2m
s:u2:i25:sw11:1 u2:i25:11a n001 u2:i25:3a 0 u2:i25:sw11:swa 
s:u2:i25:sw12:1 u2:i25:11b n001 u2:i25:3a 0 u2:i25:sw12:swb 
s:u2:i25:sw13:1 0 u2:i25:11c u2:i25:3a 0 u2:i25:sw13:swa 
s:u2:i25:sw14:1 0 u2:i25:11d u2:i25:3a 0 u2:i25:sw14:swb 
s:u2:i25:sw15:1 0 u2:i25:11a u2:i25:3a 0 u2:i25:sw15:swb 
s:u2:i25:sw16:1 0 u2:i25:11b u2:i25:3a 0 u2:i25:sw16:swa 
s:u2:i25:sw17:1 0 u2:i25:11c u2:i25:3a 0 u2:i25:sw17:swb 
s:u2:i25:sw18:1 0 u2:i25:11d u2:i25:3a 0 u2:i25:sw18:swa 
s:u2:i25:sw19:1 u2:i25:11b u2:i25:11bb 0 0 u2:i25:sw19:swa 
s:u2:i25:sw20:1 0 u2:i25:11bb 0 0 u2:i25:sw20:swb 
s:u2:i25:s21:1 u2:i25:11d u2:i25:11dd 0 0 u2:i25:s21:swa 
s:u2:i25:s22:1 0 u2:i25:11dd 0 0 u2:i25:s22:swb 
b:u2:i25:§e1a u2:i25:13a u2:i25:15a v=4*v(u2:i25:7,u2:i25:6)
b:u2:i25:§e1b u2:i25:13bb u2:i25:15bb v=8*v(u2:i25:7,u2:i25:6)
r:u2:i25:1 u2:i25:13 u2:i25:14 5e+3
c:u2:i25:1a u2:i25:14a u2:i25:14c 13.5e-12
c:u2:i25:1b u2:i25:14bb u2:i25:14dd 2e-12
s:u2:i25:sw21:1 u2:i25:13a u2:i25:13 u2:i25:3a 0 u2:i25:sw21:swa 
s:u2:i25:sw22:1 u2:i25:13b u2:i25:13 u2:i25:3a 0 u2:i25:sw22:swb 
s:u2:i25:sw23:1 u2:i25:15 u2:i25:15a u2:i25:3a 0 u2:i25:sw23:swa 
s:u2:i25:sw24:1 u2:i25:15 u2:i25:15b u2:i25:3a 0 u2:i25:sw24:swb 
s:u2:i25:sw25:1 0 u2:i25:13a u2:i25:3a 0 u2:i25:sw25:swb 
s:u2:i25:sw26:1 0 u2:i25:15a u2:i25:3a 0 u2:i25:sw26:swb 
s:u2:i25:sw27:1 0 u2:i25:13b u2:i25:3a 0 u2:i25:sw27:swa 
s:u2:i25:sw28:1 0 u2:i25:15b u2:i25:3a 0 u2:i25:sw28:swa 
s:u2:i25:s29:1 u2:i25:13bb u2:i25:13b 0 0 u2:i25:s29:swa 
s:u2:i25:s30:1 0 u2:i25:13bb 0 0 u2:i25:s30:swb 
s:u2:i25:s31:1 u2:i25:15b u2:i25:15bb 0 0 u2:i25:s31:swa 
s:u2:i25:s32:1 0 u2:i25:15bb 0 0 u2:i25:s32:swb 
s:u2:i25:s33:1 u2:i25:14bb u2:i25:14b 0 0 u2:i25:s33:swa 
s:u2:i25:s34:1 0 u2:i25:14bb 0 0 u2:i25:s34:swb 
s:u2:i25:s35:1 u2:i25:14d u2:i25:14dd 0 0 u2:i25:s35:swa 
s:u2:i25:s36:1 0 u2:i25:14dd 0 0 u2:i25:s36:swb 
s:u2:i25:sw29:1 u2:i25:14a u2:i25:14 u2:i25:3a 0 u2:i25:sw29:swa 
s:u2:i25:sw30:1 u2:i25:14b u2:i25:14 u2:i25:3a 0 u2:i25:sw30:swb 
s:u2:i25:sw31:1 u2:i25:15 u2:i25:14c u2:i25:3a 0 u2:i25:sw31:swa 
s:u2:i25:sw32:1 u2:i25:15 u2:i25:14d u2:i25:3a 0 u2:i25:sw32:swb 
s:u2:i25:sw33:1 0 u2:i25:14a u2:i25:3a 0 u2:i25:sw33:swb 
s:u2:i25:sw34:1 0 u2:i25:14b u2:i25:3a 0 u2:i25:sw34:swa 
s:u2:i25:sw35:1 0 u2:i25:14c u2:i25:3a 0 u2:i25:sw35:swb 
s:u2:i25:sw36:1 0 u2:i25:14d u2:i25:3a 0 u2:i25:sw36:swa 
m:u2:i25:3 out2 u2:i25:23 n001 n001 u2:i25:p l=3e-6 w=1400e-6
m:u2:i25:4 out2 u2:i25:24 0 0 u2:i25:n l=3e-6 w=840e-6
m:u2:i25:5 u2:i25:23 u2:i25:23 n001 n001 u2:i25:p l=6e-6 w=.35e-6
m:u2:i25:6 u2:i25:24 u2:i25:24 0 0 u2:i25:n l=6e-6 w=.21e-6
b:u2:i25:§gm5a u2:i25:23a u2:i25:23c i=8e-9+2.1e-9*v(n001,0)+1.08e-4*v(u2:i25:15,u2:i25:14)
b:u2:i25:§gm6a u2:i25:12a u2:i25:12c i=8e-9+2.1e-9*v(n001,0)+1.08e-4*v(u2:i25:14,u2:i25:15)
b:u2:i25:§gm5b u2:i25:23bb u2:i25:23dd i=5e-8+2.24e-8*v(n001,0)+1.08e-4*v(u2:i25:15,u2:i25:14)
b:u2:i25:§gm6b u2:i25:12bb u2:i25:12dd i=5e-8+2.24e-8*v(n001,0)+1.08e-4*v(u2:i25:14,u2:i25:15)
c:u2:i25:o1 out2 u2:i25:23 17e-12
c:u2:i25:o2 out2 u2:i25:24 17e-12
s:u2:i25:sw37:1 u2:i25:23a u2:i25:23 u2:i25:3a 0 u2:i25:sw37:swa 
s:u2:i25:sw38:1 0 u2:i25:23c u2:i25:3a 0 u2:i25:sw38:swa 
s:u2:i25:sw39:1 u2:i25:23b u2:i25:23 u2:i25:3a 0 u2:i25:sw39:swb 
s:u2:i25:sw40:1 0 u2:i25:23d u2:i25:3a 0 u2:i25:sw40:swb 
s:u2:i25:sw41:1 0 u2:i25:23a u2:i25:3a 0 u2:i25:sw41:swb 
s:u2:i25:sw42:1 0 u2:i25:23b u2:i25:3a 0 u2:i25:sw42:swa 
s:u2:i25:sw43:1 0 u2:i25:23c u2:i25:3a 0 u2:i25:sw43:swb 
s:u2:i25:sw44:1 0 u2:i25:23d u2:i25:3a 0 u2:i25:sw44:swa 
s:u2:i25:sw45:1 u2:i25:23bb u2:i25:23b 0 0 u2:i25:sw45:swa 
s:u2:i25:sw46:1 0 u2:i25:23bb 0 0 u2:i25:sw46:swb 
s:u2:i25:s47:1 u2:i25:23d u2:i25:23dd 0 0 u2:i25:s47:swa 
s:u2:i25:s48:1 0 u2:i25:23dd 0 0 u2:i25:s48:swb 
s:u2:i25:sw47:1 u2:i25:12a n001 u2:i25:3a 0 u2:i25:sw47:swa 
s:u2:i25:sw48:1 u2:i25:24 u2:i25:12c u2:i25:3a 0 u2:i25:sw48:swa 
s:u2:i25:sw49:1 u2:i25:12b n001 u2:i25:3a 0 u2:i25:sw49:swb 
s:u2:i25:sw50:1 u2:i25:24 u2:i25:12d u2:i25:3a 0 u2:i25:sw50:swb 
s:u2:i25:sw51:1 0 u2:i25:12a u2:i25:3a 0 u2:i25:sw51:swb 
s:u2:i25:sw52:1 0 u2:i25:12b u2:i25:3a 0 u2:i25:sw52:swa 
s:u2:i25:sw53:1 0 u2:i25:12c u2:i25:3a 0 u2:i25:sw53:swb 
s:u2:i25:sw54:1 0 u2:i25:12d u2:i25:3a 0 u2:i25:sw54:swa 
s:u2:i25:s55:1 u2:i25:12bb u2:i25:12b 0 0 u2:i25:s55:swa 
s:u2:i25:s56:1 0 u2:i25:12bb 0 0 u2:i25:s56:swb 
s:u2:i25:s57:1 u2:i25:12d u2:i25:12dd 0 0 u2:i25:s57:swa 
s:u2:i25:s58:1 0 u2:i25:12dd 0 0 u2:i25:s58:swb 
m:u2:i24:1 u2:i24:7 u2:i24:3 u2:i24:5 u2:i24:5 u2:i24:p l=3e-6 w=1200e-6
m:u2:i24:2 u2:i24:6 u2:14 u2:i24:5 u2:i24:5 u2:i24:p l=3e-6 w=1200e-6
r:u2:i24:i1 u2:i24:7 0 1.6k
r:u2:i24:i2 u2:i24:6 0 1.6k
b:u2:i24:§g1 u2:i24:12a u2:i24:5a i=15e-6+1e-6*v(n001,0)
b:u2:i24:§g2 u2:i24:12bb u2:i24:5bb i=65e-6+8e-6*v(n001,0)
s:u2:i24:sw1:1 u2:i24:12a n001 u2:i24:3a 0 u2:i24:sw1:swa 
s:u2:i24:sw2:1 u2:i24:12b n001 u2:i24:3a 0 u2:i24:sw2:swb 
s:u2:i24:sw3:1 0 u2:i24:12a u2:i24:3a 0 u2:i24:sw3:swb 
s:u2:i24:sw4:1 0 u2:i24:12b u2:i24:3a 0 u2:i24:sw4:swa 
s:u2:i24:sw5:1 u2:i24:5 u2:i24:5a u2:i24:3a 0 u2:i24:sw5:swa 
s:u2:i24:sw6:1 u2:i24:5 u2:i24:5b u2:i24:3a 0 u2:i24:sw6:swb 
s:u2:i24:sw7:1 0 u2:i24:5a u2:i24:3a 0 u2:i24:sw7:swb 
s:u2:i24:sw8:1 0 u2:i24:5b u2:i24:3a 0 u2:i24:sw8:swa 
s:u2:i24:sw9:1 u2:i24:12bb u2:i24:12b 0 0 u2:i24:sw9:swa 
s:u2:i24:sw10:1 0 u2:i24:12bb 0 0 u2:i24:sw10:swb 
s:u2:i24:s11:1 u2:i24:5b u2:i24:5bb 0 0 u2:i24:s11:swa 
s:u2:i24:s12:1 0 u2:i24:5bb 0 0 u2:i24:s12:swb 
v:u2:i24:1 n001 u2:i24:4 .75
d:u2:i24:1 u2:i24:5 u2:i24:4 u2:i24:dx 
r:u2:i24:n u2:i24:3 u2:i24:10 700
b:u2:i24:§evos u2:i24:10 n013 v=-.70m+v(u2:i24:17,u2:i24:15)+v(u2:i24:19,u2:i24:15)
s:u2:i24:i10:i25:1 u2:i24:i10:n_1 n001 u2:i24:n_2 0 u2:i24:i10:i25:swp 
s:u2:i24:i10:i27:1 u2:i24:i10:qb u2:i24:i10:n_1 u2:i24:n_3 0 u2:i24:i10:i27:swp 
s:u2:i24:i10:i26:1 u2:i24:3a n001 u2:i24:i10:qb 0 u2:i24:i10:i26:swp 
s:u2:i24:i10:i24:1 0 u2:i24:i10:qb u2:i24:n_2 0 u2:i24:i10:i24:swn 
s:u2:i24:i10:i23:1 0 u2:i24:i10:qb u2:i24:n_3 0 u2:i24:i10:i23:swn 
s:u2:i24:i10:i22:1 0 u2:i24:3a u2:i24:i10:qb 0 u2:i24:i10:i22:swn 
s:u2:i24:i8:1 u2:i24:n_2 n001 u2:1 0 u2:i24:i8:swn 
s:u2:i24:i9:1 u2:i24:n_3 n001 0 0 u2:i24:i9:swn 
r:u2:i24:i6 u2:i24:n_2 0 10meg
r:u2:i24:i7 u2:i24:n_3 0 10meg
b:u2:i24:§ecm u2:i24:16 u2:i24:15 v=.35*v(0,u2:i24:15)+.35*v(u2:14,u2:i24:15)
r:u2:i24:cm1 u2:i24:16 u2:i24:17 70e3
r:u2:i24:cm2 u2:i24:17 u2:i24:15 10
c:u2:i24:cm u2:i24:16 u2:i24:17 6.43e-12
r:u2:i24:ps1 u2:i24:18 u2:i24:19 4.5e3
r:u2:i24:ps2 u2:i24:19 u2:i24:15 1
c:u2:i24:ps u2:i24:18 u2:i24:19 100p
b:u2:i24:§eps u2:i24:18 0 v=v(n001,0)
b:u2:i24:§e2 u2:i24:15 0 v=.5*v(n001)+.5*v(0)
g:u2:i24:is1 u2:i24:11a u2:i24:11c n001 0 .035m
g:u2:i24:is2 u2:i24:11bb u2:i24:11dd n001 0 .2m
s:u2:i24:sw11:1 u2:i24:11a n001 u2:i24:3a 0 u2:i24:sw11:swa 
s:u2:i24:sw12:1 u2:i24:11b n001 u2:i24:3a 0 u2:i24:sw12:swb 
s:u2:i24:sw13:1 0 u2:i24:11c u2:i24:3a 0 u2:i24:sw13:swa 
s:u2:i24:sw14:1 0 u2:i24:11d u2:i24:3a 0 u2:i24:sw14:swb 
s:u2:i24:sw15:1 0 u2:i24:11a u2:i24:3a 0 u2:i24:sw15:swb 
s:u2:i24:sw16:1 0 u2:i24:11b u2:i24:3a 0 u2:i24:sw16:swa 
s:u2:i24:sw17:1 0 u2:i24:11c u2:i24:3a 0 u2:i24:sw17:swb 
s:u2:i24:sw18:1 0 u2:i24:11d u2:i24:3a 0 u2:i24:sw18:swa 
s:u2:i24:sw19:1 u2:i24:11b u2:i24:11bb 0 0 u2:i24:sw19:swa 
s:u2:i24:sw20:1 0 u2:i24:11bb 0 0 u2:i24:sw20:swb 
s:u2:i24:s21:1 u2:i24:11d u2:i24:11dd 0 0 u2:i24:s21:swa 
s:u2:i24:s22:1 0 u2:i24:11dd 0 0 u2:i24:s22:swb 
b:u2:i24:§e1a u2:i24:13a u2:i24:15a v=4*v(u2:i24:7,u2:i24:6)
b:u2:i24:§e1b u2:i24:13bb u2:i24:15bb v=8*v(u2:i24:7,u2:i24:6)
r:u2:i24:1 u2:i24:13 u2:i24:14 5e+3
c:u2:i24:1a u2:i24:14a u2:i24:14c 13.5e-12
c:u2:i24:1b u2:i24:14bb u2:i24:14dd 2e-12
s:u2:i24:sw21:1 u2:i24:13a u2:i24:13 u2:i24:3a 0 u2:i24:sw21:swa 
s:u2:i24:sw22:1 u2:i24:13b u2:i24:13 u2:i24:3a 0 u2:i24:sw22:swb 
s:u2:i24:sw23:1 u2:i24:15 u2:i24:15a u2:i24:3a 0 u2:i24:sw23:swa 
s:u2:i24:sw24:1 u2:i24:15 u2:i24:15b u2:i24:3a 0 u2:i24:sw24:swb 
s:u2:i24:sw25:1 0 u2:i24:13a u2:i24:3a 0 u2:i24:sw25:swb 
s:u2:i24:sw26:1 0 u2:i24:15a u2:i24:3a 0 u2:i24:sw26:swb 
s:u2:i24:sw27:1 0 u2:i24:13b u2:i24:3a 0 u2:i24:sw27:swa 
s:u2:i24:sw28:1 0 u2:i24:15b u2:i24:3a 0 u2:i24:sw28:swa 
s:u2:i24:s29:1 u2:i24:13bb u2:i24:13b 0 0 u2:i24:s29:swa 
s:u2:i24:s30:1 0 u2:i24:13bb 0 0 u2:i24:s30:swb 
s:u2:i24:s31:1 u2:i24:15b u2:i24:15bb 0 0 u2:i24:s31:swa 
s:u2:i24:s32:1 0 u2:i24:15bb 0 0 u2:i24:s32:swb 
s:u2:i24:s33:1 u2:i24:14bb u2:i24:14b 0 0 u2:i24:s33:swa 
s:u2:i24:s34:1 0 u2:i24:14bb 0 0 u2:i24:s34:swb 
s:u2:i24:s35:1 u2:i24:14d u2:i24:14dd 0 0 u2:i24:s35:swa 
s:u2:i24:s36:1 0 u2:i24:14dd 0 0 u2:i24:s36:swb 
s:u2:i24:sw29:1 u2:i24:14a u2:i24:14 u2:i24:3a 0 u2:i24:sw29:swa 
s:u2:i24:sw30:1 u2:i24:14b u2:i24:14 u2:i24:3a 0 u2:i24:sw30:swb 
s:u2:i24:sw31:1 u2:i24:15 u2:i24:14c u2:i24:3a 0 u2:i24:sw31:swa 
s:u2:i24:sw32:1 u2:i24:15 u2:i24:14d u2:i24:3a 0 u2:i24:sw32:swb 
s:u2:i24:sw33:1 0 u2:i24:14a u2:i24:3a 0 u2:i24:sw33:swb 
s:u2:i24:sw34:1 0 u2:i24:14b u2:i24:3a 0 u2:i24:sw34:swa 
s:u2:i24:sw35:1 0 u2:i24:14c u2:i24:3a 0 u2:i24:sw35:swb 
s:u2:i24:sw36:1 0 u2:i24:14d u2:i24:3a 0 u2:i24:sw36:swa 
m:u2:i24:3 u2:12 u2:i24:23 n001 n001 u2:i24:p l=3e-6 w=1400e-6
m:u2:i24:4 u2:12 u2:i24:24 0 0 u2:i24:n l=3e-6 w=840e-6
m:u2:i24:5 u2:i24:23 u2:i24:23 n001 n001 u2:i24:p l=6e-6 w=.35e-6
m:u2:i24:6 u2:i24:24 u2:i24:24 0 0 u2:i24:n l=6e-6 w=.21e-6
b:u2:i24:§gm5a u2:i24:23a u2:i24:23c i=8e-9+2.1e-9*v(n001,0)+1.08e-4*v(u2:i24:15,u2:i24:14)
b:u2:i24:§gm6a u2:i24:12a u2:i24:12c i=8e-9+2.1e-9*v(n001,0)+1.08e-4*v(u2:i24:14,u2:i24:15)
b:u2:i24:§gm5b u2:i24:23bb u2:i24:23dd i=5e-8+2.24e-8*v(n001,0)+1.08e-4*v(u2:i24:15,u2:i24:14)
b:u2:i24:§gm6b u2:i24:12bb u2:i24:12dd i=5e-8+2.24e-8*v(n001,0)+1.08e-4*v(u2:i24:14,u2:i24:15)
c:u2:i24:o1 u2:12 u2:i24:23 17e-12
c:u2:i24:o2 u2:12 u2:i24:24 17e-12
s:u2:i24:sw37:1 u2:i24:23a u2:i24:23 u2:i24:3a 0 u2:i24:sw37:swa 
s:u2:i24:sw38:1 0 u2:i24:23c u2:i24:3a 0 u2:i24:sw38:swa 
s:u2:i24:sw39:1 u2:i24:23b u2:i24:23 u2:i24:3a 0 u2:i24:sw39:swb 
s:u2:i24:sw40:1 0 u2:i24:23d u2:i24:3a 0 u2:i24:sw40:swb 
s:u2:i24:sw41:1 0 u2:i24:23a u2:i24:3a 0 u2:i24:sw41:swb 
s:u2:i24:sw42:1 0 u2:i24:23b u2:i24:3a 0 u2:i24:sw42:swa 
s:u2:i24:sw43:1 0 u2:i24:23c u2:i24:3a 0 u2:i24:sw43:swb 
s:u2:i24:sw44:1 0 u2:i24:23d u2:i24:3a 0 u2:i24:sw44:swa 
s:u2:i24:sw45:1 u2:i24:23bb u2:i24:23b 0 0 u2:i24:sw45:swa 
s:u2:i24:sw46:1 0 u2:i24:23bb 0 0 u2:i24:sw46:swb 
s:u2:i24:s47:1 u2:i24:23d u2:i24:23dd 0 0 u2:i24:s47:swa 
s:u2:i24:s48:1 0 u2:i24:23dd 0 0 u2:i24:s48:swb 
s:u2:i24:sw47:1 u2:i24:12a n001 u2:i24:3a 0 u2:i24:sw47:swa 
s:u2:i24:sw48:1 u2:i24:24 u2:i24:12c u2:i24:3a 0 u2:i24:sw48:swa 
s:u2:i24:sw49:1 u2:i24:12b n001 u2:i24:3a 0 u2:i24:sw49:swb 
s:u2:i24:sw50:1 u2:i24:24 u2:i24:12d u2:i24:3a 0 u2:i24:sw50:swb 
s:u2:i24:sw51:1 0 u2:i24:12a u2:i24:3a 0 u2:i24:sw51:swb 
s:u2:i24:sw52:1 0 u2:i24:12b u2:i24:3a 0 u2:i24:sw52:swa 
s:u2:i24:sw53:1 0 u2:i24:12c u2:i24:3a 0 u2:i24:sw53:swb 
s:u2:i24:sw54:1 0 u2:i24:12d u2:i24:3a 0 u2:i24:sw54:swa 
s:u2:i24:s55:1 u2:i24:12bb u2:i24:12b 0 0 u2:i24:s55:swa 
s:u2:i24:s56:1 0 u2:i24:12bb 0 0 u2:i24:s56:swb 
s:u2:i24:s57:1 u2:i24:12d u2:i24:12dd 0 0 u2:i24:s57:swa 
s:u2:i24:s58:1 0 u2:i24:12dd 0 0 u2:i24:s58:swb 
m:u2:i23:1 u2:i23:7 u2:i23:3 u2:i23:5 u2:i23:5 u2:i23:p l=3e-6 w=1200e-6
m:u2:i23:2 u2:i23:6 u2:19 u2:i23:5 u2:i23:5 u2:i23:p l=3e-6 w=1200e-6
r:u2:i23:i1 u2:i23:7 0 1.6k
r:u2:i23:i2 u2:i23:6 0 1.6k
b:u2:i23:§g1 u2:i23:12a u2:i23:5a i=15e-6+1e-6*v(n001,0)
b:u2:i23:§g2 u2:i23:12bb u2:i23:5bb i=65e-6+8e-6*v(n001,0)
s:u2:i23:sw1:1 u2:i23:12a n001 u2:i23:3a 0 u2:i23:sw1:swa 
s:u2:i23:sw2:1 u2:i23:12b n001 u2:i23:3a 0 u2:i23:sw2:swb 
s:u2:i23:sw3:1 0 u2:i23:12a u2:i23:3a 0 u2:i23:sw3:swb 
s:u2:i23:sw4:1 0 u2:i23:12b u2:i23:3a 0 u2:i23:sw4:swa 
s:u2:i23:sw5:1 u2:i23:5 u2:i23:5a u2:i23:3a 0 u2:i23:sw5:swa 
s:u2:i23:sw6:1 u2:i23:5 u2:i23:5b u2:i23:3a 0 u2:i23:sw6:swb 
s:u2:i23:sw7:1 0 u2:i23:5a u2:i23:3a 0 u2:i23:sw7:swb 
s:u2:i23:sw8:1 0 u2:i23:5b u2:i23:3a 0 u2:i23:sw8:swa 
s:u2:i23:sw9:1 u2:i23:12bb u2:i23:12b 0 0 u2:i23:sw9:swa 
s:u2:i23:sw10:1 0 u2:i23:12bb 0 0 u2:i23:sw10:swb 
s:u2:i23:s11:1 u2:i23:5b u2:i23:5bb 0 0 u2:i23:s11:swa 
s:u2:i23:s12:1 0 u2:i23:5bb 0 0 u2:i23:s12:swb 
v:u2:i23:1 n001 u2:i23:4 .75
d:u2:i23:1 u2:i23:5 u2:i23:4 u2:i23:dx 
r:u2:i23:n u2:i23:3 u2:i23:10 700
b:u2:i23:§evos u2:i23:10 n013 v=-.70m+v(u2:i23:17,u2:i23:15)+v(u2:i23:19,u2:i23:15)
s:u2:i23:i10:i25:1 u2:i23:i10:n_1 n001 u2:i23:n_2 0 u2:i23:i10:i25:swp 
s:u2:i23:i10:i27:1 u2:i23:i10:qb u2:i23:i10:n_1 u2:i23:n_3 0 u2:i23:i10:i27:swp 
s:u2:i23:i10:i26:1 u2:i23:3a n001 u2:i23:i10:qb 0 u2:i23:i10:i26:swp 
s:u2:i23:i10:i24:1 0 u2:i23:i10:qb u2:i23:n_2 0 u2:i23:i10:i24:swn 
s:u2:i23:i10:i23:1 0 u2:i23:i10:qb u2:i23:n_3 0 u2:i23:i10:i23:swn 
s:u2:i23:i10:i22:1 0 u2:i23:3a u2:i23:i10:qb 0 u2:i23:i10:i22:swn 
s:u2:i23:i8:1 u2:i23:n_2 n001 u2:1 0 u2:i23:i8:swn 
s:u2:i23:i9:1 u2:i23:n_3 n001 0 0 u2:i23:i9:swn 
r:u2:i23:i6 u2:i23:n_2 0 10meg
r:u2:i23:i7 u2:i23:n_3 0 10meg
b:u2:i23:§ecm u2:i23:16 u2:i23:15 v=.35*v(0,u2:i23:15)+.35*v(u2:19,u2:i23:15)
r:u2:i23:cm1 u2:i23:16 u2:i23:17 70e3
r:u2:i23:cm2 u2:i23:17 u2:i23:15 10
c:u2:i23:cm u2:i23:16 u2:i23:17 6.43e-12
r:u2:i23:ps1 u2:i23:18 u2:i23:19 4.5e3
r:u2:i23:ps2 u2:i23:19 u2:i23:15 1
c:u2:i23:ps u2:i23:18 u2:i23:19 100p
b:u2:i23:§eps u2:i23:18 0 v=v(n001,0)
b:u2:i23:§e2 u2:i23:15 0 v=.5*v(n001)+.5*v(0)
g:u2:i23:is1 u2:i23:11a u2:i23:11c n001 0 .035m
g:u2:i23:is2 u2:i23:11bb u2:i23:11dd n001 0 .2m
s:u2:i23:sw11:1 u2:i23:11a n001 u2:i23:3a 0 u2:i23:sw11:swa 
s:u2:i23:sw12:1 u2:i23:11b n001 u2:i23:3a 0 u2:i23:sw12:swb 
s:u2:i23:sw13:1 0 u2:i23:11c u2:i23:3a 0 u2:i23:sw13:swa 
s:u2:i23:sw14:1 0 u2:i23:11d u2:i23:3a 0 u2:i23:sw14:swb 
s:u2:i23:sw15:1 0 u2:i23:11a u2:i23:3a 0 u2:i23:sw15:swb 
s:u2:i23:sw16:1 0 u2:i23:11b u2:i23:3a 0 u2:i23:sw16:swa 
s:u2:i23:sw17:1 0 u2:i23:11c u2:i23:3a 0 u2:i23:sw17:swb 
s:u2:i23:sw18:1 0 u2:i23:11d u2:i23:3a 0 u2:i23:sw18:swa 
s:u2:i23:sw19:1 u2:i23:11b u2:i23:11bb 0 0 u2:i23:sw19:swa 
s:u2:i23:sw20:1 0 u2:i23:11bb 0 0 u2:i23:sw20:swb 
s:u2:i23:s21:1 u2:i23:11d u2:i23:11dd 0 0 u2:i23:s21:swa 
s:u2:i23:s22:1 0 u2:i23:11dd 0 0 u2:i23:s22:swb 
b:u2:i23:§e1a u2:i23:13a u2:i23:15a v=4*v(u2:i23:7,u2:i23:6)
b:u2:i23:§e1b u2:i23:13bb u2:i23:15bb v=8*v(u2:i23:7,u2:i23:6)
r:u2:i23:1 u2:i23:13 u2:i23:14 5e+3
c:u2:i23:1a u2:i23:14a u2:i23:14c 13.5e-12
c:u2:i23:1b u2:i23:14bb u2:i23:14dd 2e-12
s:u2:i23:sw21:1 u2:i23:13a u2:i23:13 u2:i23:3a 0 u2:i23:sw21:swa 
s:u2:i23:sw22:1 u2:i23:13b u2:i23:13 u2:i23:3a 0 u2:i23:sw22:swb 
s:u2:i23:sw23:1 u2:i23:15 u2:i23:15a u2:i23:3a 0 u2:i23:sw23:swa 
s:u2:i23:sw24:1 u2:i23:15 u2:i23:15b u2:i23:3a 0 u2:i23:sw24:swb 
s:u2:i23:sw25:1 0 u2:i23:13a u2:i23:3a 0 u2:i23:sw25:swb 
s:u2:i23:sw26:1 0 u2:i23:15a u2:i23:3a 0 u2:i23:sw26:swb 
s:u2:i23:sw27:1 0 u2:i23:13b u2:i23:3a 0 u2:i23:sw27:swa 
s:u2:i23:sw28:1 0 u2:i23:15b u2:i23:3a 0 u2:i23:sw28:swa 
s:u2:i23:s29:1 u2:i23:13bb u2:i23:13b 0 0 u2:i23:s29:swa 
s:u2:i23:s30:1 0 u2:i23:13bb 0 0 u2:i23:s30:swb 
s:u2:i23:s31:1 u2:i23:15b u2:i23:15bb 0 0 u2:i23:s31:swa 
s:u2:i23:s32:1 0 u2:i23:15bb 0 0 u2:i23:s32:swb 
s:u2:i23:s33:1 u2:i23:14bb u2:i23:14b 0 0 u2:i23:s33:swa 
s:u2:i23:s34:1 0 u2:i23:14bb 0 0 u2:i23:s34:swb 
s:u2:i23:s35:1 u2:i23:14d u2:i23:14dd 0 0 u2:i23:s35:swa 
s:u2:i23:s36:1 0 u2:i23:14dd 0 0 u2:i23:s36:swb 
s:u2:i23:sw29:1 u2:i23:14a u2:i23:14 u2:i23:3a 0 u2:i23:sw29:swa 
s:u2:i23:sw30:1 u2:i23:14b u2:i23:14 u2:i23:3a 0 u2:i23:sw30:swb 
s:u2:i23:sw31:1 u2:i23:15 u2:i23:14c u2:i23:3a 0 u2:i23:sw31:swa 
s:u2:i23:sw32:1 u2:i23:15 u2:i23:14d u2:i23:3a 0 u2:i23:sw32:swb 
s:u2:i23:sw33:1 0 u2:i23:14a u2:i23:3a 0 u2:i23:sw33:swb 
s:u2:i23:sw34:1 0 u2:i23:14b u2:i23:3a 0 u2:i23:sw34:swa 
s:u2:i23:sw35:1 0 u2:i23:14c u2:i23:3a 0 u2:i23:sw35:swb 
s:u2:i23:sw36:1 0 u2:i23:14d u2:i23:3a 0 u2:i23:sw36:swa 
m:u2:i23:3 u2:10 u2:i23:23 n001 n001 u2:i23:p l=3e-6 w=1400e-6
m:u2:i23:4 u2:10 u2:i23:24 0 0 u2:i23:n l=3e-6 w=840e-6
m:u2:i23:5 u2:i23:23 u2:i23:23 n001 n001 u2:i23:p l=6e-6 w=.35e-6
m:u2:i23:6 u2:i23:24 u2:i23:24 0 0 u2:i23:n l=6e-6 w=.21e-6
b:u2:i23:§gm5a u2:i23:23a u2:i23:23c i=8e-9+2.1e-9*v(n001,0)+1.08e-4*v(u2:i23:15,u2:i23:14)
b:u2:i23:§gm6a u2:i23:12a u2:i23:12c i=8e-9+2.1e-9*v(n001,0)+1.08e-4*v(u2:i23:14,u2:i23:15)
b:u2:i23:§gm5b u2:i23:23bb u2:i23:23dd i=5e-8+2.24e-8*v(n001,0)+1.08e-4*v(u2:i23:15,u2:i23:14)
b:u2:i23:§gm6b u2:i23:12bb u2:i23:12dd i=5e-8+2.24e-8*v(n001,0)+1.08e-4*v(u2:i23:14,u2:i23:15)
c:u2:i23:o1 u2:10 u2:i23:23 17e-12
c:u2:i23:o2 u2:10 u2:i23:24 17e-12
s:u2:i23:sw37:1 u2:i23:23a u2:i23:23 u2:i23:3a 0 u2:i23:sw37:swa 
s:u2:i23:sw38:1 0 u2:i23:23c u2:i23:3a 0 u2:i23:sw38:swa 
s:u2:i23:sw39:1 u2:i23:23b u2:i23:23 u2:i23:3a 0 u2:i23:sw39:swb 
s:u2:i23:sw40:1 0 u2:i23:23d u2:i23:3a 0 u2:i23:sw40:swb 
s:u2:i23:sw41:1 0 u2:i23:23a u2:i23:3a 0 u2:i23:sw41:swb 
s:u2:i23:sw42:1 0 u2:i23:23b u2:i23:3a 0 u2:i23:sw42:swa 
s:u2:i23:sw43:1 0 u2:i23:23c u2:i23:3a 0 u2:i23:sw43:swb 
s:u2:i23:sw44:1 0 u2:i23:23d u2:i23:3a 0 u2:i23:sw44:swa 
s:u2:i23:sw45:1 u2:i23:23bb u2:i23:23b 0 0 u2:i23:sw45:swa 
s:u2:i23:sw46:1 0 u2:i23:23bb 0 0 u2:i23:sw46:swb 
s:u2:i23:s47:1 u2:i23:23d u2:i23:23dd 0 0 u2:i23:s47:swa 
s:u2:i23:s48:1 0 u2:i23:23dd 0 0 u2:i23:s48:swb 
s:u2:i23:sw47:1 u2:i23:12a n001 u2:i23:3a 0 u2:i23:sw47:swa 
s:u2:i23:sw48:1 u2:i23:24 u2:i23:12c u2:i23:3a 0 u2:i23:sw48:swa 
s:u2:i23:sw49:1 u2:i23:12b n001 u2:i23:3a 0 u2:i23:sw49:swb 
s:u2:i23:sw50:1 u2:i23:24 u2:i23:12d u2:i23:3a 0 u2:i23:sw50:swb 
s:u2:i23:sw51:1 0 u2:i23:12a u2:i23:3a 0 u2:i23:sw51:swb 
s:u2:i23:sw52:1 0 u2:i23:12b u2:i23:3a 0 u2:i23:sw52:swa 
s:u2:i23:sw53:1 0 u2:i23:12c u2:i23:3a 0 u2:i23:sw53:swb 
s:u2:i23:sw54:1 0 u2:i23:12d u2:i23:3a 0 u2:i23:sw54:swa 
s:u2:i23:s55:1 u2:i23:12bb u2:i23:12b 0 0 u2:i23:s55:swa 
s:u2:i23:s56:1 0 u2:i23:12bb 0 0 u2:i23:s56:swb 
s:u2:i23:s57:1 u2:i23:12d u2:i23:12dd 0 0 u2:i23:s57:swa 
s:u2:i23:s58:1 0 u2:i23:12dd 0 0 u2:i23:s58:swb 
s:u2:s2:1 0 u2:18 0 0 u2:s2:swa 
s:u2:s1:1 u2:17 n001 0 0 u2:s1:swa 
r:u2:mike u2:1 n013 1g
c2 n013 0 .1µ
r7 n008 n004 320000 
r8 n011 n004 320000 
r9 n009 n005 320000 
r10 out2 n005 320000 
r11 n005 n011 320000 
r12 n004 out 320000 
.model u2:s1:swa vswitch(ron=10 roff=100e8 von=.5 voff=2.2)
.model u2:s2:swa vswitch(ron=10 roff=100e8 von=.5 voff=2.2)
.model u2:i23:n nmos(level=2 kf=3.5e-28 kp=52e-6 vto=.7 lambda=.001 rd=5)
.model u2:i23:p pmos(level=2 kf=2.5e-26 kp=16e-6 vto=-.7 lambda=.001 rd=8)
.model u2:i23:dx d(is=1e-14 rs=5)
.model u2:i23:s58:swb vswitch(ron=10 roff=100e8 von=2.2 voff=.5)
.model u2:i23:s57:swa vswitch(ron=10 roff=100e8 von=.5 voff=2.2)
.model u2:i23:s56:swb vswitch(ron=10 roff=100e8 von=2.2 voff=.5)
.model u2:i23:s55:swa vswitch(ron=10 roff=100e8 von=.5 voff=2.2)
.model u2:i23:sw54:swa vswitch(ron=10 roff=100e8 von=.5 voff=2.2)
.model u2:i23:sw53:swb vswitch(ron=10 roff=100e8 von=2.2 voff=.5)
.model u2:i23:sw52:swa vswitch(ron=10 roff=100e8 von=.5 voff=2.2)
.model u2:i23:sw51:swb vswitch(ron=10 roff=100e8 von=2.2 voff=.5)
.model u2:i23:sw50:swb vswitch(ron=10 roff=100e8 von=2.2 voff=.5)
.model u2:i23:sw49:swb vswitch(ron=10 roff=100e8 von=2.2 voff=.5)
.model u2:i23:sw48:swa vswitch(ron=10 roff=100e8 von=.5 voff=2.2)
.model u2:i23:sw47:swa vswitch(ron=10 roff=100e8 von=.5 voff=2.2)
.model u2:i23:s48:swb vswitch(ron=10 roff=100e8 von=2.2 voff=.5)
.model u2:i23:s47:swa vswitch(ron=10 roff=100e8 von=.5 voff=2.2)
.model u2:i23:sw46:swb vswitch(ron=10 roff=100e8 von=2.2 voff=.5)
.model u2:i23:sw45:swa vswitch(ron=10 roff=100e8 von=.5 voff=2.2)
.model u2:i23:sw44:swa vswitch(ron=10 roff=100e8 von=.5 voff=2.2)
.model u2:i23:sw43:swb vswitch(ron=10 roff=100e8 von=2.2 voff=.5)
.model u2:i23:sw42:swa vswitch(ron=10 roff=100e8 von=.5 voff=2.2)
.model u2:i23:sw41:swb vswitch(ron=10 roff=100e8 von=2.2 voff=.5)
.model u2:i23:sw40:swb vswitch(ron=10 roff=100e8 von=2.2 voff=.5)
.model u2:i23:sw39:swb vswitch(ron=10 roff=100e8 von=2.2 voff=.5)
.model u2:i23:sw38:swa vswitch(ron=10 roff=100e8 von=.5 voff=2.2)
.model u2:i23:sw37:swa vswitch(ron=10 roff=100e8 von=.5 voff=2.2)
.model u2:i23:sw36:swa vswitch(ron=10 roff=100e8 von=.5 voff=2.2)
.model u2:i23:sw35:swb vswitch(ron=10 roff=100e8 von=2.2 voff=.5)
.model u2:i23:sw34:swa vswitch(ron=10 roff=100e8 von=.5 voff=2.2)
.model u2:i23:sw33:swb vswitch(ron=10 roff=100e8 von=2.2 voff=.5)
.model u2:i23:sw32:swb vswitch(ron=10 roff=100e8 von=2.2 voff=.5)
.model u2:i23:sw31:swa vswitch(ron=10 roff=100e8 von=.5 voff=2.2)
.model u2:i23:sw30:swb vswitch(ron=10 roff=100e8 von=2.2 voff=.5)
.model u2:i23:sw29:swa vswitch(ron=10 roff=100e8 von=.5 voff=2.2)
.model u2:i23:s36:swb vswitch(ron=10 roff=100e8 von=2.2 voff=.5)
.model u2:i23:s35:swa vswitch(ron=10 roff=100e8 von=.5 voff=2.2)
.model u2:i23:s34:swb vswitch(ron=10 roff=100e8 von=2.2 voff=.5)
.model u2:i23:s33:swa vswitch(ron=10 roff=100e8 von=.5 voff=2.2)
.model u2:i23:s32:swb vswitch(ron=10 roff=100e8 von=2.2 voff=.5)
.model u2:i23:s31:swa vswitch(ron=10 roff=100e8 von=.5 voff=2.2)
.model u2:i23:s30:swb vswitch(ron=10 roff=100e8 von=2.2 voff=.5)
.model u2:i23:s29:swa vswitch(ron=10 roff=100e8 von=.5 voff=2.2)
.model u2:i23:sw28:swa vswitch(ron=10 roff=100e8 von=.5 voff=2.2)
.model u2:i23:sw27:swa vswitch(ron=10 roff=100e8 von=.5 voff=2.2)
.model u2:i23:sw26:swb vswitch(ron=10 roff=100e8 von=2.2 voff=.5)
.model u2:i23:sw25:swb vswitch(ron=10 roff=100e8 von=2.2 voff=.5)
.model u2:i23:sw24:swb vswitch(ron=10 roff=100e8 von=2.2 voff=.5)
.model u2:i23:sw23:swa vswitch(ron=10 roff=100e8 von=.5 voff=2.2)
.model u2:i23:sw22:swb vswitch(ron=10 roff=100e8 von=2.2 voff=.5)
.model u2:i23:sw21:swa vswitch(ron=10 roff=100e8 von=.5 voff=2.2)
.model u2:i23:s22:swb vswitch(ron=10 roff=100e8 von=2.2 voff=.5)
.model u2:i23:s21:swa vswitch(ron=10 roff=100e8 von=.5 voff=2.2)
.model u2:i23:sw20:swb vswitch(ron=10 roff=100e8 von=2.2 voff=.5)
.model u2:i23:sw19:swa vswitch(ron=10 roff=100e8 von=.5 voff=2.2)
.model u2:i23:sw18:swa vswitch(ron=10 roff=100e8 von=.5 voff=2.2)
.model u2:i23:sw17:swb vswitch(ron=10 roff=100e8 von=2.2 voff=.5)
.model u2:i23:sw16:swa vswitch(ron=10 roff=100e8 von=.5 voff=2.2)
.model u2:i23:sw15:swb vswitch(ron=10 roff=100e8 von=2.2 voff=.5)
.model u2:i23:sw14:swb vswitch(ron=10 roff=100e8 von=2.2 voff=.5)
.model u2:i23:sw13:swa vswitch(ron=10 roff=100e8 von=.5 voff=2.2)
.model u2:i23:sw12:swb vswitch(ron=10 roff=100e8 von=2.2 voff=.5)
.model u2:i23:sw11:swa vswitch(ron=10 roff=100e8 von=.5 voff=2.2)
.model u2:i23:i9:swn vswitch(ron=1000 roff=10e6 von=2.2 voff=0.5)
.model u2:i23:i8:swn vswitch(ron=1000 roff=10e6 von=2.2 voff=0.5)
.model u2:i23:i10:i22:swn vswitch(ron=1000 roff=10e6 von=2.2 voff=0.5)
.model u2:i23:i10:i23:swn vswitch(ron=1000 roff=10e6 von=2.2 voff=0.5)
.model u2:i23:i10:i24:swn vswitch(ron=1000 roff=10e6 von=2.2 voff=0.5)
.model u2:i23:i10:i26:swp vswitch(ron=1000 roff=10e6 von=0.5 voff=2.2)
.model u2:i23:i10:i27:swp vswitch(ron=1000 roff=10e6 von=0.5 voff=2.2)
.model u2:i23:i10:i25:swp vswitch(ron=1000 roff=10e6 von=0.5 voff=2.2)
.model u2:i23:s12:swb vswitch(ron=10 roff=100e8 von=2.2 voff=.5)
.model u2:i23:s11:swa vswitch(ron=10 roff=100e8 von=.5 voff=2.2)
.model u2:i23:sw10:swb vswitch(ron=10 roff=100e8 von=2.2 voff=.5)
.model u2:i23:sw9:swa vswitch(ron=10 roff=100e8 von=.5 voff=2.2)
.model u2:i23:sw8:swa vswitch(ron=10 roff=100e8 von=.5 voff=2.2)
.model u2:i23:sw7:swb vswitch(ron=10 roff=100e8 von=2.2 voff=.5)
.model u2:i23:sw6:swb vswitch(ron=10 roff=100e8 von=2.2 voff=.5)
.model u2:i23:sw5:swa vswitch(ron=10 roff=100e8 von=.5 voff=2.2)
.model u2:i23:sw4:swa vswitch(ron=10 roff=100e8 von=.5 voff=2.2)
.model u2:i23:sw3:swb vswitch(ron=10 roff=100e8 von=2.2 voff=.5)
.model u2:i23:sw2:swb vswitch(ron=10 roff=100e8 von=2.2 voff=.5)
.model u2:i23:sw1:swa vswitch(ron=10 roff=100e8 von=.5 voff=2.2)
.model u2:i24:n nmos(level=2 kf=3.5e-28 kp=52e-6 vto=.7 lambda=.001 rd=5)
.model u2:i24:p pmos(level=2 kf=2.5e-26 kp=16e-6 vto=-.7 lambda=.001 rd=8)
.model u2:i24:dx d(is=1e-14 rs=5)
.model u2:i24:s58:swb vswitch(ron=10 roff=100e8 von=2.2 voff=.5)
.model u2:i24:s57:swa vswitch(ron=10 roff=100e8 von=.5 voff=2.2)
.model u2:i24:s56:swb vswitch(ron=10 roff=100e8 von=2.2 voff=.5)
.model u2:i24:s55:swa vswitch(ron=10 roff=100e8 von=.5 voff=2.2)
.model u2:i24:sw54:swa vswitch(ron=10 roff=100e8 von=.5 voff=2.2)
.model u2:i24:sw53:swb vswitch(ron=10 roff=100e8 von=2.2 voff=.5)
.model u2:i24:sw52:swa vswitch(ron=10 roff=100e8 von=.5 voff=2.2)
.model u2:i24:sw51:swb vswitch(ron=10 roff=100e8 von=2.2 voff=.5)
.model u2:i24:sw50:swb vswitch(ron=10 roff=100e8 von=2.2 voff=.5)
.model u2:i24:sw49:swb vswitch(ron=10 roff=100e8 von=2.2 voff=.5)
.model u2:i24:sw48:swa vswitch(ron=10 roff=100e8 von=.5 voff=2.2)
.model u2:i24:sw47:swa vswitch(ron=10 roff=100e8 von=.5 voff=2.2)
.model u2:i24:s48:swb vswitch(ron=10 roff=100e8 von=2.2 voff=.5)
.model u2:i24:s47:swa vswitch(ron=10 roff=100e8 von=.5 voff=2.2)
.model u2:i24:sw46:swb vswitch(ron=10 roff=100e8 von=2.2 voff=.5)
.model u2:i24:sw45:swa vswitch(ron=10 roff=100e8 von=.5 voff=2.2)
.model u2:i24:sw44:swa vswitch(ron=10 roff=100e8 von=.5 voff=2.2)
.model u2:i24:sw43:swb vswitch(ron=10 roff=100e8 von=2.2 voff=.5)
.model u2:i24:sw42:swa vswitch(ron=10 roff=100e8 von=.5 voff=2.2)
.model u2:i24:sw41:swb vswitch(ron=10 roff=100e8 von=2.2 voff=.5)
.model u2:i24:sw40:swb vswitch(ron=10 roff=100e8 von=2.2 voff=.5)
.model u2:i24:sw39:swb vswitch(ron=10 roff=100e8 von=2.2 voff=.5)
.model u2:i24:sw38:swa vswitch(ron=10 roff=100e8 von=.5 voff=2.2)
.model u2:i24:sw37:swa vswitch(ron=10 roff=100e8 von=.5 voff=2.2)
.model u2:i24:sw36:swa vswitch(ron=10 roff=100e8 von=.5 voff=2.2)
.model u2:i24:sw35:swb vswitch(ron=10 roff=100e8 von=2.2 voff=.5)
.model u2:i24:sw34:swa vswitch(ron=10 roff=100e8 von=.5 voff=2.2)
.model u2:i24:sw33:swb vswitch(ron=10 roff=100e8 von=2.2 voff=.5)
.model u2:i24:sw32:swb vswitch(ron=10 roff=100e8 von=2.2 voff=.5)
.model u2:i24:sw31:swa vswitch(ron=10 roff=100e8 von=.5 voff=2.2)
.model u2:i24:sw30:swb vswitch(ron=10 roff=100e8 von=2.2 voff=.5)
.model u2:i24:sw29:swa vswitch(ron=10 roff=100e8 von=.5 voff=2.2)
.model u2:i24:s36:swb vswitch(ron=10 roff=100e8 von=2.2 voff=.5)
.model u2:i24:s35:swa vswitch(ron=10 roff=100e8 von=.5 voff=2.2)
.model u2:i24:s34:swb vswitch(ron=10 roff=100e8 von=2.2 voff=.5)
.model u2:i24:s33:swa vswitch(ron=10 roff=100e8 von=.5 voff=2.2)
.model u2:i24:s32:swb vswitch(ron=10 roff=100e8 von=2.2 voff=.5)
.model u2:i24:s31:swa vswitch(ron=10 roff=100e8 von=.5 voff=2.2)
.model u2:i24:s30:swb vswitch(ron=10 roff=100e8 von=2.2 voff=.5)
.model u2:i24:s29:swa vswitch(ron=10 roff=100e8 von=.5 voff=2.2)
.model u2:i24:sw28:swa vswitch(ron=10 roff=100e8 von=.5 voff=2.2)
.model u2:i24:sw27:swa vswitch(ron=10 roff=100e8 von=.5 voff=2.2)
.model u2:i24:sw26:swb vswitch(ron=10 roff=100e8 von=2.2 voff=.5)
.model u2:i24:sw25:swb vswitch(ron=10 roff=100e8 von=2.2 voff=.5)
.model u2:i24:sw24:swb vswitch(ron=10 roff=100e8 von=2.2 voff=.5)
.model u2:i24:sw23:swa vswitch(ron=10 roff=100e8 von=.5 voff=2.2)
.model u2:i24:sw22:swb vswitch(ron=10 roff=100e8 von=2.2 voff=.5)
.model u2:i24:sw21:swa vswitch(ron=10 roff=100e8 von=.5 voff=2.2)
.model u2:i24:s22:swb vswitch(ron=10 roff=100e8 von=2.2 voff=.5)
.model u2:i24:s21:swa vswitch(ron=10 roff=100e8 von=.5 voff=2.2)
.model u2:i24:sw20:swb vswitch(ron=10 roff=100e8 von=2.2 voff=.5)
.model u2:i24:sw19:swa vswitch(ron=10 roff=100e8 von=.5 voff=2.2)
.model u2:i24:sw18:swa vswitch(ron=10 roff=100e8 von=.5 voff=2.2)
.model u2:i24:sw17:swb vswitch(ron=10 roff=100e8 von=2.2 voff=.5)
.model u2:i24:sw16:swa vswitch(ron=10 roff=100e8 von=.5 voff=2.2)
.model u2:i24:sw15:swb vswitch(ron=10 roff=100e8 von=2.2 voff=.5)
.model u2:i24:sw14:swb vswitch(ron=10 roff=100e8 von=2.2 voff=.5)
.model u2:i24:sw13:swa vswitch(ron=10 roff=100e8 von=.5 voff=2.2)
.model u2:i24:sw12:swb vswitch(ron=10 roff=100e8 von=2.2 voff=.5)
.model u2:i24:sw11:swa vswitch(ron=10 roff=100e8 von=.5 voff=2.2)
.model u2:i24:i9:swn vswitch(ron=1000 roff=10e6 von=2.2 voff=0.5)
.model u2:i24:i8:swn vswitch(ron=1000 roff=10e6 von=2.2 voff=0.5)
.model u2:i24:i10:i22:swn vswitch(ron=1000 roff=10e6 von=2.2 voff=0.5)
.model u2:i24:i10:i23:swn vswitch(ron=1000 roff=10e6 von=2.2 voff=0.5)
.model u2:i24:i10:i24:swn vswitch(ron=1000 roff=10e6 von=2.2 voff=0.5)
.model u2:i24:i10:i26:swp vswitch(ron=1000 roff=10e6 von=0.5 voff=2.2)
.model u2:i24:i10:i27:swp vswitch(ron=1000 roff=10e6 von=0.5 voff=2.2)
.model u2:i24:i10:i25:swp vswitch(ron=1000 roff=10e6 von=0.5 voff=2.2)
.model u2:i24:s12:swb vswitch(ron=10 roff=100e8 von=2.2 voff=.5)
.model u2:i24:s11:swa vswitch(ron=10 roff=100e8 von=.5 voff=2.2)
.model u2:i24:sw10:swb vswitch(ron=10 roff=100e8 von=2.2 voff=.5)
.model u2:i24:sw9:swa vswitch(ron=10 roff=100e8 von=.5 voff=2.2)
.model u2:i24:sw8:swa vswitch(ron=10 roff=100e8 von=.5 voff=2.2)
.model u2:i24:sw7:swb vswitch(ron=10 roff=100e8 von=2.2 voff=.5)
.model u2:i24:sw6:swb vswitch(ron=10 roff=100e8 von=2.2 voff=.5)
.model u2:i24:sw5:swa vswitch(ron=10 roff=100e8 von=.5 voff=2.2)
.model u2:i24:sw4:swa vswitch(ron=10 roff=100e8 von=.5 voff=2.2)
.model u2:i24:sw3:swb vswitch(ron=10 roff=100e8 von=2.2 voff=.5)
.model u2:i24:sw2:swb vswitch(ron=10 roff=100e8 von=2.2 voff=.5)
.model u2:i24:sw1:swa vswitch(ron=10 roff=100e8 von=.5 voff=2.2)
.model u2:i25:n nmos(level=2 kf=3.5e-28 kp=52e-6 vto=.7 lambda=.001 rd=5)
.model u2:i25:p pmos(level=2 kf=2.5e-26 kp=16e-6 vto=-.7 lambda=.001 rd=8)
.model u2:i25:dx d(is=1e-14 rs=5)
.model u2:i25:s58:swb vswitch(ron=10 roff=100e8 von=2.2 voff=.5)
.model u2:i25:s57:swa vswitch(ron=10 roff=100e8 von=.5 voff=2.2)
.model u2:i25:s56:swb vswitch(ron=10 roff=100e8 von=2.2 voff=.5)
.model u2:i25:s55:swa vswitch(ron=10 roff=100e8 von=.5 voff=2.2)
.model u2:i25:sw54:swa vswitch(ron=10 roff=100e8 von=.5 voff=2.2)
.model u2:i25:sw53:swb vswitch(ron=10 roff=100e8 von=2.2 voff=.5)
.model u2:i25:sw52:swa vswitch(ron=10 roff=100e8 von=.5 voff=2.2)
.model u2:i25:sw51:swb vswitch(ron=10 roff=100e8 von=2.2 voff=.5)
.model u2:i25:sw50:swb vswitch(ron=10 roff=100e8 von=2.2 voff=.5)
.model u2:i25:sw49:swb vswitch(ron=10 roff=100e8 von=2.2 voff=.5)
.model u2:i25:sw48:swa vswitch(ron=10 roff=100e8 von=.5 voff=2.2)
.model u2:i25:sw47:swa vswitch(ron=10 roff=100e8 von=.5 voff=2.2)
.model u2:i25:s48:swb vswitch(ron=10 roff=100e8 von=2.2 voff=.5)
.model u2:i25:s47:swa vswitch(ron=10 roff=100e8 von=.5 voff=2.2)
.model u2:i25:sw46:swb vswitch(ron=10 roff=100e8 von=2.2 voff=.5)
.model u2:i25:sw45:swa vswitch(ron=10 roff=100e8 von=.5 voff=2.2)
.model u2:i25:sw44:swa vswitch(ron=10 roff=100e8 von=.5 voff=2.2)
.model u2:i25:sw43:swb vswitch(ron=10 roff=100e8 von=2.2 voff=.5)
.model u2:i25:sw42:swa vswitch(ron=10 roff=100e8 von=.5 voff=2.2)
.model u2:i25:sw41:swb vswitch(ron=10 roff=100e8 von=2.2 voff=.5)
.model u2:i25:sw40:swb vswitch(ron=10 roff=100e8 von=2.2 voff=.5)
.model u2:i25:sw39:swb vswitch(ron=10 roff=100e8 von=2.2 voff=.5)
.model u2:i25:sw38:swa vswitch(ron=10 roff=100e8 von=.5 voff=2.2)
.model u2:i25:sw37:swa vswitch(ron=10 roff=100e8 von=.5 voff=2.2)
.model u2:i25:sw36:swa vswitch(ron=10 roff=100e8 von=.5 voff=2.2)
.model u2:i25:sw35:swb vswitch(ron=10 roff=100e8 von=2.2 voff=.5)
.model u2:i25:sw34:swa vswitch(ron=10 roff=100e8 von=.5 voff=2.2)
.model u2:i25:sw33:swb vswitch(ron=10 roff=100e8 von=2.2 voff=.5)
.model u2:i25:sw32:swb vswitch(ron=10 roff=100e8 von=2.2 voff=.5)
.model u2:i25:sw31:swa vswitch(ron=10 roff=100e8 von=.5 voff=2.2)
.model u2:i25:sw30:swb vswitch(ron=10 roff=100e8 von=2.2 voff=.5)
.model u2:i25:sw29:swa vswitch(ron=10 roff=100e8 von=.5 voff=2.2)
.model u2:i25:s36:swb vswitch(ron=10 roff=100e8 von=2.2 voff=.5)
.model u2:i25:s35:swa vswitch(ron=10 roff=100e8 von=.5 voff=2.2)
.model u2:i25:s34:swb vswitch(ron=10 roff=100e8 von=2.2 voff=.5)
.model u2:i25:s33:swa vswitch(ron=10 roff=100e8 von=.5 voff=2.2)
.model u2:i25:s32:swb vswitch(ron=10 roff=100e8 von=2.2 voff=.5)
.model u2:i25:s31:swa vswitch(ron=10 roff=100e8 von=.5 voff=2.2)
.model u2:i25:s30:swb vswitch(ron=10 roff=100e8 von=2.2 voff=.5)
.model u2:i25:s29:swa vswitch(ron=10 roff=100e8 von=.5 voff=2.2)
.model u2:i25:sw28:swa vswitch(ron=10 roff=100e8 von=.5 voff=2.2)
.model u2:i25:sw27:swa vswitch(ron=10 roff=100e8 von=.5 voff=2.2)
.model u2:i25:sw26:swb vswitch(ron=10 roff=100e8 von=2.2 voff=.5)
.model u2:i25:sw25:swb vswitch(ron=10 roff=100e8 von=2.2 voff=.5)
.model u2:i25:sw24:swb vswitch(ron=10 roff=100e8 von=2.2 voff=.5)
.model u2:i25:sw23:swa vswitch(ron=10 roff=100e8 von=.5 voff=2.2)
.model u2:i25:sw22:swb vswitch(ron=10 roff=100e8 von=2.2 voff=.5)
.model u2:i25:sw21:swa vswitch(ron=10 roff=100e8 von=.5 voff=2.2)
.model u2:i25:s22:swb vswitch(ron=10 roff=100e8 von=2.2 voff=.5)
.model u2:i25:s21:swa vswitch(ron=10 roff=100e8 von=.5 voff=2.2)
.model u2:i25:sw20:swb vswitch(ron=10 roff=100e8 von=2.2 voff=.5)
.model u2:i25:sw19:swa vswitch(ron=10 roff=100e8 von=.5 voff=2.2)
.model u2:i25:sw18:swa vswitch(ron=10 roff=100e8 von=.5 voff=2.2)
.model u2:i25:sw17:swb vswitch(ron=10 roff=100e8 von=2.2 voff=.5)
.model u2:i25:sw16:swa vswitch(ron=10 roff=100e8 von=.5 voff=2.2)
.model u2:i25:sw15:swb vswitch(ron=10 roff=100e8 von=2.2 voff=.5)
.model u2:i25:sw14:swb vswitch(ron=10 roff=100e8 von=2.2 voff=.5)
.model u2:i25:sw13:swa vswitch(ron=10 roff=100e8 von=.5 voff=2.2)
.model u2:i25:sw12:swb vswitch(ron=10 roff=100e8 von=2.2 voff=.5)
.model u2:i25:sw11:swa vswitch(ron=10 roff=100e8 von=.5 voff=2.2)
.model u2:i25:i9:swn vswitch(ron=1000 roff=10e6 von=2.2 voff=0.5)
.model u2:i25:i8:swn vswitch(ron=1000 roff=10e6 von=2.2 voff=0.5)
.model u2:i25:i10:i22:swn vswitch(ron=1000 roff=10e6 von=2.2 voff=0.5)
.model u2:i25:i10:i23:swn vswitch(ron=1000 roff=10e6 von=2.2 voff=0.5)
.model u2:i25:i10:i24:swn vswitch(ron=1000 roff=10e6 von=2.2 voff=0.5)
.model u2:i25:i10:i26:swp vswitch(ron=1000 roff=10e6 von=0.5 voff=2.2)
.model u2:i25:i10:i27:swp vswitch(ron=1000 roff=10e6 von=0.5 voff=2.2)
.model u2:i25:i10:i25:swp vswitch(ron=1000 roff=10e6 von=0.5 voff=2.2)
.model u2:i25:s12:swb vswitch(ron=10 roff=100e8 von=2.2 voff=.5)
.model u2:i25:s11:swa vswitch(ron=10 roff=100e8 von=.5 voff=2.2)
.model u2:i25:sw10:swb vswitch(ron=10 roff=100e8 von=2.2 voff=.5)
.model u2:i25:sw9:swa vswitch(ron=10 roff=100e8 von=.5 voff=2.2)
.model u2:i25:sw8:swa vswitch(ron=10 roff=100e8 von=.5 voff=2.2)
.model u2:i25:sw7:swb vswitch(ron=10 roff=100e8 von=2.2 voff=.5)
.model u2:i25:sw6:swb vswitch(ron=10 roff=100e8 von=2.2 voff=.5)
.model u2:i25:sw5:swa vswitch(ron=10 roff=100e8 von=.5 voff=2.2)
.model u2:i25:sw4:swa vswitch(ron=10 roff=100e8 von=.5 voff=2.2)
.model u2:i25:sw3:swb vswitch(ron=10 roff=100e8 von=2.2 voff=.5)
.model u2:i25:sw2:swb vswitch(ron=10 roff=100e8 von=2.2 voff=.5)
.model u2:i25:sw1:swa vswitch(ron=10 roff=100e8 von=.5 voff=2.2)
.model u2:i26:n nmos(level=2 kf=3.5e-28 kp=52e-6 vto=.7 lambda=.001 rd=5)
.model u2:i26:p pmos(level=2 kf=2.5e-26 kp=16e-6 vto=-.7 lambda=.001 rd=8)
.model u2:i26:dx d(is=1e-14 rs=5)
.model u2:i26:s58:swb vswitch(ron=10 roff=100e8 von=2.2 voff=.5)
.model u2:i26:s57:swa vswitch(ron=10 roff=100e8 von=.5 voff=2.2)
.model u2:i26:s56:swb vswitch(ron=10 roff=100e8 von=2.2 voff=.5)
.model u2:i26:s55:swa vswitch(ron=10 roff=100e8 von=.5 voff=2.2)
.model u2:i26:sw54:swa vswitch(ron=10 roff=100e8 von=.5 voff=2.2)
.model u2:i26:sw53:swb vswitch(ron=10 roff=100e8 von=2.2 voff=.5)
.model u2:i26:sw52:swa vswitch(ron=10 roff=100e8 von=.5 voff=2.2)
.model u2:i26:sw51:swb vswitch(ron=10 roff=100e8 von=2.2 voff=.5)
.model u2:i26:sw50:swb vswitch(ron=10 roff=100e8 von=2.2 voff=.5)
.model u2:i26:sw49:swb vswitch(ron=10 roff=100e8 von=2.2 voff=.5)
.model u2:i26:sw48:swa vswitch(ron=10 roff=100e8 von=.5 voff=2.2)
.model u2:i26:sw47:swa vswitch(ron=10 roff=100e8 von=.5 voff=2.2)
.model u2:i26:s48:swb vswitch(ron=10 roff=100e8 von=2.2 voff=.5)
.model u2:i26:s47:swa vswitch(ron=10 roff=100e8 von=.5 voff=2.2)
.model u2:i26:sw46:swb vswitch(ron=10 roff=100e8 von=2.2 voff=.5)
.model u2:i26:sw45:swa vswitch(ron=10 roff=100e8 von=.5 voff=2.2)
.model u2:i26:sw44:swa vswitch(ron=10 roff=100e8 von=.5 voff=2.2)
.model u2:i26:sw43:swb vswitch(ron=10 roff=100e8 von=2.2 voff=.5)
.model u2:i26:sw42:swa vswitch(ron=10 roff=100e8 von=.5 voff=2.2)
.model u2:i26:sw41:swb vswitch(ron=10 roff=100e8 von=2.2 voff=.5)
.model u2:i26:sw40:swb vswitch(ron=10 roff=100e8 von=2.2 voff=.5)
.model u2:i26:sw39:swb vswitch(ron=10 roff=100e8 von=2.2 voff=.5)
.model u2:i26:sw38:swa vswitch(ron=10 roff=100e8 von=.5 voff=2.2)
.model u2:i26:sw37:swa vswitch(ron=10 roff=100e8 von=.5 voff=2.2)
.model u2:i26:sw36:swa vswitch(ron=10 roff=100e8 von=.5 voff=2.2)
.model u2:i26:sw35:swb vswitch(ron=10 roff=100e8 von=2.2 voff=.5)
.model u2:i26:sw34:swa vswitch(ron=10 roff=100e8 von=.5 voff=2.2)
.model u2:i26:sw33:swb vswitch(ron=10 roff=100e8 von=2.2 voff=.5)
.model u2:i26:sw32:swb vswitch(ron=10 roff=100e8 von=2.2 voff=.5)
.model u2:i26:sw31:swa vswitch(ron=10 roff=100e8 von=.5 voff=2.2)
.model u2:i26:sw30:swb vswitch(ron=10 roff=100e8 von=2.2 voff=.5)
.model u2:i26:sw29:swa vswitch(ron=10 roff=100e8 von=.5 voff=2.2)
.model u2:i26:s36:swb vswitch(ron=10 roff=100e8 von=2.2 voff=.5)
.model u2:i26:s35:swa vswitch(ron=10 roff=100e8 von=.5 voff=2.2)
.model u2:i26:s34:swb vswitch(ron=10 roff=100e8 von=2.2 voff=.5)
.model u2:i26:s33:swa vswitch(ron=10 roff=100e8 von=.5 voff=2.2)
.model u2:i26:s32:swb vswitch(ron=10 roff=100e8 von=2.2 voff=.5)
.model u2:i26:s31:swa vswitch(ron=10 roff=100e8 von=.5 voff=2.2)
.model u2:i26:s30:swb vswitch(ron=10 roff=100e8 von=2.2 voff=.5)
.model u2:i26:s29:swa vswitch(ron=10 roff=100e8 von=.5 voff=2.2)
.model u2:i26:sw28:swa vswitch(ron=10 roff=100e8 von=.5 voff=2.2)
.model u2:i26:sw27:swa vswitch(ron=10 roff=100e8 von=.5 voff=2.2)
.model u2:i26:sw26:swb vswitch(ron=10 roff=100e8 von=2.2 voff=.5)
.model u2:i26:sw25:swb vswitch(ron=10 roff=100e8 von=2.2 voff=.5)
.model u2:i26:sw24:swb vswitch(ron=10 roff=100e8 von=2.2 voff=.5)
.model u2:i26:sw23:swa vswitch(ron=10 roff=100e8 von=.5 voff=2.2)
.model u2:i26:sw22:swb vswitch(ron=10 roff=100e8 von=2.2 voff=.5)
.model u2:i26:sw21:swa vswitch(ron=10 roff=100e8 von=.5 voff=2.2)
.model u2:i26:s22:swb vswitch(ron=10 roff=100e8 von=2.2 voff=.5)
.model u2:i26:s21:swa vswitch(ron=10 roff=100e8 von=.5 voff=2.2)
.model u2:i26:sw20:swb vswitch(ron=10 roff=100e8 von=2.2 voff=.5)
.model u2:i26:sw19:swa vswitch(ron=10 roff=100e8 von=.5 voff=2.2)
.model u2:i26:sw18:swa vswitch(ron=10 roff=100e8 von=.5 voff=2.2)
.model u2:i26:sw17:swb vswitch(ron=10 roff=100e8 von=2.2 voff=.5)
.model u2:i26:sw16:swa vswitch(ron=10 roff=100e8 von=.5 voff=2.2)
.model u2:i26:sw15:swb vswitch(ron=10 roff=100e8 von=2.2 voff=.5)
.model u2:i26:sw14:swb vswitch(ron=10 roff=100e8 von=2.2 voff=.5)
.model u2:i26:sw13:swa vswitch(ron=10 roff=100e8 von=.5 voff=2.2)
.model u2:i26:sw12:swb vswitch(ron=10 roff=100e8 von=2.2 voff=.5)
.model u2:i26:sw11:swa vswitch(ron=10 roff=100e8 von=.5 voff=2.2)
.model u2:i26:i9:swn vswitch(ron=1000 roff=10e6 von=2.2 voff=0.5)
.model u2:i26:i8:swn vswitch(ron=1000 roff=10e6 von=2.2 voff=0.5)
.model u2:i26:i10:i22:swn vswitch(ron=1000 roff=10e6 von=2.2 voff=0.5)
.model u2:i26:i10:i23:swn vswitch(ron=1000 roff=10e6 von=2.2 voff=0.5)
.model u2:i26:i10:i24:swn vswitch(ron=1000 roff=10e6 von=2.2 voff=0.5)
.model u2:i26:i10:i26:swp vswitch(ron=1000 roff=10e6 von=0.5 voff=2.2)
.model u2:i26:i10:i27:swp vswitch(ron=1000 roff=10e6 von=0.5 voff=2.2)
.model u2:i26:i10:i25:swp vswitch(ron=1000 roff=10e6 von=0.5 voff=2.2)
.model u2:i26:s12:swb vswitch(ron=10 roff=100e8 von=2.2 voff=.5)
.model u2:i26:s11:swa vswitch(ron=10 roff=100e8 von=.5 voff=2.2)
.model u2:i26:sw10:swb vswitch(ron=10 roff=100e8 von=2.2 voff=.5)
.model u2:i26:sw9:swa vswitch(ron=10 roff=100e8 von=.5 voff=2.2)
.model u2:i26:sw8:swa vswitch(ron=10 roff=100e8 von=.5 voff=2.2)
.model u2:i26:sw7:swb vswitch(ron=10 roff=100e8 von=2.2 voff=.5)
.model u2:i26:sw6:swb vswitch(ron=10 roff=100e8 von=2.2 voff=.5)
.model u2:i26:sw5:swa vswitch(ron=10 roff=100e8 von=.5 voff=2.2)
.model u2:i26:sw4:swa vswitch(ron=10 roff=100e8 von=.5 voff=2.2)
.model u2:i26:sw3:swb vswitch(ron=10 roff=100e8 von=2.2 voff=.5)
.model u2:i26:sw2:swb vswitch(ron=10 roff=100e8 von=2.2 voff=.5)
.model u2:i26:sw1:swa vswitch(ron=10 roff=100e8 von=.5 voff=2.2)
.model u1:s1:swa vswitch(ron=10 roff=100e8 von=.5 voff=2.2)
.model u1:s2:swa vswitch(ron=10 roff=100e8 von=.5 voff=2.2)
.model u1:i23:n nmos(level=2 kf=3.5e-28 kp=52e-6 vto=.7 lambda=.001 rd=5)
.model u1:i23:p pmos(level=2 kf=2.5e-26 kp=16e-6 vto=-.7 lambda=.001 rd=8)
.model u1:i23:dx d(is=1e-14 rs=5)
.model u1:i23:s58:swb vswitch(ron=10 roff=100e8 von=2.2 voff=.5)
.model u1:i23:s57:swa vswitch(ron=10 roff=100e8 von=.5 voff=2.2)
.model u1:i23:s56:swb vswitch(ron=10 roff=100e8 von=2.2 voff=.5)
.model u1:i23:s55:swa vswitch(ron=10 roff=100e8 von=.5 voff=2.2)
.model u1:i23:sw54:swa vswitch(ron=10 roff=100e8 von=.5 voff=2.2)
.model u1:i23:sw53:swb vswitch(ron=10 roff=100e8 von=2.2 voff=.5)
.model u1:i23:sw52:swa vswitch(ron=10 roff=100e8 von=.5 voff=2.2)
.model u1:i23:sw51:swb vswitch(ron=10 roff=100e8 von=2.2 voff=.5)
.model u1:i23:sw50:swb vswitch(ron=10 roff=100e8 von=2.2 voff=.5)
.model u1:i23:sw49:swb vswitch(ron=10 roff=100e8 von=2.2 voff=.5)
.model u1:i23:sw48:swa vswitch(ron=10 roff=100e8 von=.5 voff=2.2)
.model u1:i23:sw47:swa vswitch(ron=10 roff=100e8 von=.5 voff=2.2)
.model u1:i23:s48:swb vswitch(ron=10 roff=100e8 von=2.2 voff=.5)
.model u1:i23:s47:swa vswitch(ron=10 roff=100e8 von=.5 voff=2.2)
.model u1:i23:sw46:swb vswitch(ron=10 roff=100e8 von=2.2 voff=.5)
.model u1:i23:sw45:swa vswitch(ron=10 roff=100e8 von=.5 voff=2.2)
.model u1:i23:sw44:swa vswitch(ron=10 roff=100e8 von=.5 voff=2.2)
.model u1:i23:sw43:swb vswitch(ron=10 roff=100e8 von=2.2 voff=.5)
.model u1:i23:sw42:swa vswitch(ron=10 roff=100e8 von=.5 voff=2.2)
.model u1:i23:sw41:swb vswitch(ron=10 roff=100e8 von=2.2 voff=.5)
.model u1:i23:sw40:swb vswitch(ron=10 roff=100e8 von=2.2 voff=.5)
.model u1:i23:sw39:swb vswitch(ron=10 roff=100e8 von=2.2 voff=.5)
.model u1:i23:sw38:swa vswitch(ron=10 roff=100e8 von=.5 voff=2.2)
.model u1:i23:sw37:swa vswitch(ron=10 roff=100e8 von=.5 voff=2.2)
.model u1:i23:sw36:swa vswitch(ron=10 roff=100e8 von=.5 voff=2.2)
.model u1:i23:sw35:swb vswitch(ron=10 roff=100e8 von=2.2 voff=.5)
.model u1:i23:sw34:swa vswitch(ron=10 roff=100e8 von=.5 voff=2.2)
.model u1:i23:sw33:swb vswitch(ron=10 roff=100e8 von=2.2 voff=.5)
.model u1:i23:sw32:swb vswitch(ron=10 roff=100e8 von=2.2 voff=.5)
.model u1:i23:sw31:swa vswitch(ron=10 roff=100e8 von=.5 voff=2.2)
.model u1:i23:sw30:swb vswitch(ron=10 roff=100e8 von=2.2 voff=.5)
.model u1:i23:sw29:swa vswitch(ron=10 roff=100e8 von=.5 voff=2.2)
.model u1:i23:s36:swb vswitch(ron=10 roff=100e8 von=2.2 voff=.5)
.model u1:i23:s35:swa vswitch(ron=10 roff=100e8 von=.5 voff=2.2)
.model u1:i23:s34:swb vswitch(ron=10 roff=100e8 von=2.2 voff=.5)
.model u1:i23:s33:swa vswitch(ron=10 roff=100e8 von=.5 voff=2.2)
.model u1:i23:s32:swb vswitch(ron=10 roff=100e8 von=2.2 voff=.5)
.model u1:i23:s31:swa vswitch(ron=10 roff=100e8 von=.5 voff=2.2)
.model u1:i23:s30:swb vswitch(ron=10 roff=100e8 von=2.2 voff=.5)
.model u1:i23:s29:swa vswitch(ron=10 roff=100e8 von=.5 voff=2.2)
.model u1:i23:sw28:swa vswitch(ron=10 roff=100e8 von=.5 voff=2.2)
.model u1:i23:sw27:swa vswitch(ron=10 roff=100e8 von=.5 voff=2.2)
.model u1:i23:sw26:swb vswitch(ron=10 roff=100e8 von=2.2 voff=.5)
[...]
.model u1:i24:s33:swa vswitch(ron=10 roff=100e8 von=.5 voff=2.2)
.model u1:i24:s32:swb vswitch(ron=10 roff=100e8 von=2.2 voff=.5)
.model u1:i24:s31:swa vswitch(ron=10 roff=100e8 von=.5 voff=2.2)
.model u1:i24:s30:swb vswitch(ron=10 roff=100e8 von=2.2 voff=.5)
.model u1:i24:s29:swa vswitch(ron=10 roff=100e8 von=.5 voff=2.2)
.model u1:i24:sw28:swa vswitch(ron=10 roff=100e8 von=.5 voff=2.2)
.model u1:i24:sw27:swa vswitch(ron=10 roff=100e8 von=.5 voff=2.2)
.model u1:i24:sw26:swb vswitch(ron=10 roff=100e8 von=2.2 voff=.5)
.model u1:i24:sw25:swb vswitch(ron=10 roff=100e8 von=2.2 voff=.5)
.model u1:i24:sw24:swb vswitch(ron=10 roff=100e8 von=2.2 voff=.5)
.model u1:i24:sw23:swa vswitch(ron=10 roff=100e8 von=.5 voff=2.2)
.model u1:i24:sw22:swb vswitch(ron=10 roff=100e8 von=2.2 voff=.5)
.model u1:i24:sw21:swa vswitch(ron=10 roff=100e8 von=.5 voff=2.2)
.model u1:i24:s22:swb vswitch(ron=10 roff=100e8 von=2.2 voff=.5)
.model u1:i24:s21:swa vswitch(ron=10 roff=100e8 von=.5 voff=2.2)
.model u1:i24:sw20:swb vswitch(ron=10 roff=100e8 von=2.2 voff=.5)
.model u1:i24:sw19:swa vswitch(ron=10 roff=100e8 von=.5 voff=2.2)
.model u1:i24:sw18:swa vswitch(ron=10 roff=100e8 von=.5 voff=2.2)
.model u1:i24:sw17:swb vswitch(ron=10 roff=100e8 von=2.2 voff=.5)
.model u1:i24:sw16:swa vswitch(ron=10 roff=100e8 von=.5 voff=2.2)
.model u1:i24:sw15:swb vswitch(ron=10 roff=100e8 von=2.2 voff=.5)
.model u1:i24:sw14:swb vswitch(ron=10 roff=100e8 von=2.2 voff=.5)
.model u1:i24:sw13:swa vswitch(ron=10 roff=100e8 von=.5 voff=2.2)
.model u1:i24:sw12:swb vswitch(ron=10 roff=100e8 von=2.2 voff=.5)
.model u1:i24:sw11:swa vswitch(ron=10 roff=100e8 von=.5 voff=2.2)
.model u1:i24:i9:swn vswitch(ron=1000 roff=10e6 von=2.2 voff=0.5)
.model u1:i24:i8:swn vswitch(ron=1000 roff=10e6 von=2.2 voff=0.5)
.model u1:i24:i10:i22:swn vswitch(ron=1000 roff=10e6 von=2.2 voff=0.5)
.model u1:i24:i10:i23:swn vswitch(ron=1000 roff=10e6 von=2.2 voff=0.5)
.model u1:i24:i10:i24:swn vswitch(ron=1000 roff=10e6 von=2.2 voff=0.5)
.model u1:i24:i10:i26:swp vswitch(ron=1000 roff=10e6 von=0.5 voff=2.2)
.model u1:i24:i10:i27:swp vswitch(ron=1000 roff=10e6 von=0.5 voff=2.2)
.model u1:i24:i10:i25:swp vswitch(ron=1000 roff=10e6 von=0.5 voff=2.2)
.model u1:i24:s12:swb vswitch(ron=10 roff=100e8 von=2.2 voff=.5)
.model u1:i24:s11:swa vswitch(ron=10 roff=100e8 von=.5 voff=2.2)
.model u1:i24:sw10:swb vswitch(ron=10 roff=100e8 von=2.2 voff=.5)
.model u1:i24:sw9:swa vswitch(ron=10 roff=100e8 von=.5 voff=2.2)
.model u1:i24:sw8:swa vswitch(ron=10 roff=100e8 von=.5 voff=2.2)
.model u1:i24:sw7:swb vswitch(ron=10 roff=100e8 von=2.2 voff=.5)
.model u1:i24:sw6:swb vswitch(ron=10 roff=100e8 von=2.2 voff=.5)
.model u1:i24:sw5:swa vswitch(ron=10 roff=100e8 von=.5 voff=2.2)
.model u1:i24:sw4:swa vswitch(ron=10 roff=100e8 von=.5 voff=2.2)
.model u1:i24:sw3:swb vswitch(ron=10 roff=100e8 von=2.2 voff=.5)
.model u1:i24:sw2:swb vswitch(ron=10 roff=100e8 von=2.2 voff=.5)
.model u1:i24:sw1:swa vswitch(ron=10 roff=100e8 von=.5 voff=2.2)
.model u1:i25:n nmos(level=2 kf=3.5e-28 kp=52e-6 vto=.7 lambda=.001 rd=5)
.model u1:i25:p pmos(level=2 kf=2.5e-26 kp=16e-6 vto=-.7 lambda=.001 rd=8)
.model u1:i25:dx d(is=1e-14 rs=5)
.model u1:i25:s58:swb vswitch(ron=10 roff=100e8 von=2.2 voff=.5)
.model u1:i25:s57:swa vswitch(ron=10 roff=100e8 von=.5 voff=2.2)
.model u1:i25:s56:swb vswitch(ron=10 roff=100e8 von=2.2 voff=.5)
.model u1:i25:s55:swa vswitch(ron=10 roff=100e8 von=.5 voff=2.2)
.model u1:i25:sw54:swa vswitch(ron=10 roff=100e8 von=.5 voff=2.2)
.model u1:i25:sw53:swb vswitch(ron=10 roff=100e8 von=2.2 voff=.5)
.model u1:i25:sw52:swa vswitch(ron=10 roff=100e8 von=.5 voff=2.2)
.model u1:i25:sw51:swb vswitch(ron=10 roff=100e8 von=2.2 voff=.5)
.model u1:i25:sw50:swb vswitch(ron=10 roff=100e8 von=2.2 voff=.5)
.model u1:i25:sw49:swb vswitch(ron=10 roff=100e8 von=2.2 voff=.5)
.model u1:i25:sw48:swa vswitch(ron=10 roff=100e8 von=.5 voff=2.2)
.model u1:i25:sw47:swa vswitch(ron=10 roff=100e8 von=.5 voff=2.2)
.model u1:i25:s48:swb vswitch(ron=10 roff=100e8 von=2.2 voff=.5)
.model u1:i25:s47:swa vswitch(ron=10 roff=100e8 von=.5 voff=2.2)
.model u1:i25:sw46:swb vswitch(ron=10 roff=100e8 von=2.2 voff=.5)
.model u1:i25:sw45:swa vswitch(ron=10 roff=100e8 von=.5 voff=2.2)
.model u1:i25:sw44:swa vswitch(ron=10 roff=100e8 von=.5 voff=2.2)
.model u1:i25:sw43:swb vswitch(ron=10 roff=100e8 von=2.2 voff=.5)
.model u1:i25:sw42:swa vswitch(ron=10 roff=100e8 von=.5 voff=2.2)
.model u1:i25:sw41:swb vswitch(ron=10 roff=100e8 von=2.2 voff=.5)
.model u1:i25:sw40:swb vswitch(ron=10 roff=100e8 von=2.2 voff=.5)
.model u1:i25:sw39:swb vswitch(ron=10 roff=100e8 von=2.2 voff=.5)
.model u1:i25:sw38:swa vswitch(ron=10 roff=100e8 von=.5 voff=2.2)
.model u1:i25:sw37:swa vswitch(ron=10 roff=100e8 von=.5 voff=2.2)
.model u1:i25:sw36:swa vswitch(ron=10 roff=100e8 von=.5 voff=2.2)
.model u1:i25:sw35:swb vswitch(ron=10 roff=100e8 von=2.2 voff=.5)
.model u1:i25:sw34:swa vswitch(ron=10 roff=100e8 von=.5 voff=2.2)
.model u1:i25:sw33:swb vswitch(ron=10 roff=100e8 von=2.2 voff=.5)
.model u1:i25:sw32:swb vswitch(ron=10 roff=100e8 von=2.2 voff=.5)
.model u1:i25:sw31:swa vswitch(ron=10 roff=100e8 von=.5 voff=2.2)
.model u1:i25:sw30:swb vswitch(ron=10 roff=100e8 von=2.2 voff=.5)
.model u1:i25:sw29:swa vswitch(ron=10 roff=100e8 von=.5 voff=2.2)
.model u1:i25:s36:swb vswitch(ron=10 roff=100e8 von=2.2 voff=.5)
.model u1:i25:s35:swa vswitch(ron=10 roff=100e8 von=.5 voff=2.2)
.model u1:i25:s34:swb vswitch(ron=10 roff=100e8 von=2.2 voff=.5)
.model u1:i25:s33:swa vswitch(ron=10 roff=100e8 von=.5 voff=2.2)
.model u1:i25:s32:swb vswitch(ron=10 roff=100e8 von=2.2 voff=.5)
.model u1:i25:s31:swa vswitch(ron=10 roff=100e8 von=.5 voff=2.2)
.model u1:i25:s30:swb vswitch(ron=10 roff=100e8 von=2.2 voff=.5)
.model u1:i25:s29:swa vswitch(ron=10 roff=100e8 von=.5 voff=2.2)
.model u1:i25:sw28:swa vswitch(ron=10 roff=100e8 von=.5 voff=2.2)
.model u1:i25:sw27:swa vswitch(ron=10 roff=100e8 von=.5 voff=2.2)
.model u1:i25:sw26:swb vswitch(ron=10 roff=100e8 von=2.2 voff=.5)
.model u1:i25:sw25:swb vswitch(ron=10 roff=100e8 von=2.2 voff=.5)
.model u1:i25:sw24:swb vswitch(ron=10 roff=100e8 von=2.2 voff=.5)
.model u1:i25:sw23:swa vswitch(ron=10 roff=100e8 von=.5 voff=2.2)
.model u1:i25:sw22:swb vswitch(ron=10 roff=100e8 von=2.2 voff=.5)
.model u1:i25:sw21:swa vswitch(ron=10 roff=100e8 von=.5 voff=2.2)
.model u1:i25:s22:swb vswitch(ron=10 roff=100e8 von=2.2 voff=.5)
.model u1:i25:s21:swa vswitch(ron=10 roff=100e8 von=.5 voff=2.2)
.model u1:i25:sw20:swb vswitch(ron=10 roff=100e8 von=2.2 voff=.5)
.model u1:i25:sw19:swa vswitch(ron=10 roff=100e8 von=.5 voff=2.2)
.model u1:i25:sw18:swa vswitch(ron=10 roff=100e8 von=.5 voff=2.2)
.model u1:i25:sw17:swb vswitch(ron=10 roff=100e8 von=2.2 voff=.5)
.model u1:i25:sw16:swa vswitch(ron=10 roff=100e8 von=.5 voff=2.2)
.model u1:i25:sw15:swb vswitch(ron=10 roff=100e8 von=2.2 voff=.5)
.model u1:i25:sw14:swb vswitch(ron=10 roff=100e8 von=2.2 voff=.5)
.model u1:i25:sw13:swa vswitch(ron=10 roff=100e8 von=.5 voff=2.2)
.model u1:i25:sw12:swb vswitch(ron=10 roff=100e8 von=2.2 voff=.5)
.model u1:i25:sw11:swa vswitch(ron=10 roff=100e8 von=.5 voff=2.2)
.model u1:i25:i9:swn vswitch(ron=1000 roff=10e6 von=2.2 voff=0.5)
.model u1:i25:i8:swn vswitch(ron=1000 roff=10e6 von=2.2 voff=0.5)
.model u1:i25:i10:i22:swn vswitch(ron=1000 roff=10e6 von=2.2 voff=0.5)
.model u1:i25:i10:i23:swn vswitch(ron=1000 roff=10e6 von=2.2 voff=0.5)
.model u1:i25:i10:i24:swn vswitch(ron=1000 roff=10e6 von=2.2 voff=0.5)
.model u1:i25:i10:i26:swp vswitch(ron=1000 roff=10e6 von=0.5 voff=2.2)
.model u1:i25:i10:i27:swp vswitch(ron=1000 roff=10e6 von=0.5 voff=2.2)
.model u1:i25:i10:i25:swp vswitch(ron=1000 roff=10e6 von=0.5 voff=2.2)
.model u1:i25:s12:swb vswitch(ron=10 roff=100e8 von=2.2 voff=.5)
.model u1:i25:s11:swa vswitch(ron=10 roff=100e8 von=.5 voff=2.2)
.model u1:i25:sw10:swb vswitch(ron=10 roff=100e8 von=2.2 voff=.5)
.model u1:i25:sw9:swa vswitch(ron=10 roff=100e8 von=.5 voff=2.2)
.model u1:i25:sw8:swa vswitch(ron=10 roff=100e8 von=.5 voff=2.2)
.model u1:i25:sw7:swb vswitch(ron=10 roff=100e8 von=2.2 voff=.5)
.model u1:i25:sw6:swb vswitch(ron=10 roff=100e8 von=2.2 voff=.5)
.model u1:i25:sw5:swa vswitch(ron=10 roff=100e8 von=.5 voff=2.2)
.model u1:i25:sw4:swa vswitch(ron=10 roff=100e8 von=.5 voff=2.2)
.model u1:i25:sw3:swb vswitch(ron=10 roff=100e8 von=2.2 voff=.5)
.model u1:i25:sw2:swb vswitch(ron=10 roff=100e8 von=2.2 voff=.5)
.model u1:i25:sw1:swa vswitch(ron=10 roff=100e8 von=.5 voff=2.2)
.model u1:i26:n nmos(level=2 kf=3.5e-28 kp=52e-6 vto=.7 lambda=.001 rd=5)
.model u1:i26:p pmos(level=2 kf=2.5e-26 kp=16e-6 vto=-.7 lambda=.001 rd=8)
.model u1:i26:dx d(is=1e-14 rs=5)
.model u1:i26:s58:swb vswitch(ron=10 roff=100e8 von=2.2 voff=.5)
.model u1:i26:s57:swa vswitch(ron=10 roff=100e8 von=.5 voff=2.2)
.model u1:i26:s56:swb vswitch(ron=10 roff=100e8 von=2.2 voff=.5)
.model u1:i26:s55:swa vswitch(ron=10 roff=100e8 von=.5 voff=2.2)
.model u1:i26:sw54:swa vswitch(ron=10 roff=100e8 von=.5 voff=2.2)
.model u1:i26:sw53:swb vswitch(ron=10 roff=100e8 von=2.2 voff=.5)
.model u1:i26:sw52:swa vswitch(ron=10 roff=100e8 von=.5 voff=2.2)
.model u1:i26:sw51:swb vswitch(ron=10 roff=100e8 von=2.2 voff=.5)
.model u1:i26:sw50:swb vswitch(ron=10 roff=100e8 von=2.2 voff=.5)
.model u1:i26:sw49:swb vswitch(ron=10 roff=100e8 von=2.2 voff=.5)
.model u1:i26:sw48:swa vswitch(ron=10 roff=100e8 von=.5 voff=2.2)
.model u1:i26:sw47:swa vswitch(ron=10 roff=100e8 von=.5 voff=2.2)
.model u1:i26:s48:swb vswitch(ron=10 roff=100e8 von=2.2 voff=.5)
.model u1:i26:s47:swa vswitch(ron=10 roff=100e8 von=.5 voff=2.2)
.model u1:i26:sw46:swb vswitch(ron=10 roff=100e8 von=2.2 voff=.5)
.model u1:i26:sw45:swa vswitch(ron=10 roff=100e8 von=.5 voff=2.2)
.model u1:i26:sw44:swa vswitch(ron=10 roff=100e8 von=.5 voff=2.2)
.model u1:i26:sw43:swb vswitch(ron=10 roff=100e8 von=2.2 voff=.5)
.model u1:i26:sw42:swa vswitch(ron=10 roff=100e8 von=.5 voff=2.2)
.model u1:i26:sw41:swb vswitch(ron=10 roff=100e8 von=2.2 voff=.5)
.model u1:i26:sw40:swb vswitch(ron=10 roff=100e8 von=2.2 voff=.5)
.model u1:i26:sw39:swb vswitch(ron=10 roff=100e8 von=2.2 voff=.5)
.model u1:i26:sw38:swa vswitch(ron=10 roff=100e8 von=.5 voff=2.2)
.model u1:i26:sw37:swa vswitch(ron=10 roff=100e8 von=.5 voff=2.2)
.model u1:i26:sw36:swa vswitch(ron=10 roff=100e8 von=.5 voff=2.2)
.model u1:i26:sw35:swb vswitch(ron=10 roff=100e8 von=2.2 voff=.5)
.model u1:i26:sw34:swa vswitch(ron=10 roff=100e8 von=.5 voff=2.2)
.model u1:i26:sw33:swb vswitch(ron=10 roff=100e8 von=2.2 voff=.5)
.model u1:i26:sw32:swb vswitch(ron=10 roff=100e8 von=2.2 voff=.5)
.model u1:i26:sw31:swa vswitch(ron=10 roff=100e8 von=.5 voff=2.2)
.model u1:i26:sw30:swb vswitch(ron=10 roff=100e8 von=2.2 voff=.5)
.model u1:i26:sw29:swa vswitch(ron=10 roff=100e8 von=.5 voff=2.2)
.model u1:i26:s36:swb vswitch(ron=10 roff=100e8 von=2.2 voff=.5)
.model u1:i26:s35:swa vswitch(ron=10 roff=100e8 von=.5 voff=2.2)
.model u1:i26:s34:swb vswitch(ron=10 roff=100e8 von=2.2 voff=.5)
.model u1:i26:s33:swa vswitch(ron=10 roff=100e8 von=.5 voff=2.2)
.model u1:i26:s32:swb vswitch(ron=10 roff=100e8 von=2.2 voff=.5)
.model u1:i26:s31:swa vswitch(ron=10 roff=100e8 von=.5 voff=2.2)
.model u1:i26:s30:swb vswitch(ron=10 roff=100e8 von=2.2 voff=.5)
.model u1:i26:s29:swa vswitch(ron=10 roff=100e8 von=.5 voff=2.2)
.model u1:i26:sw28:swa vswitch(ron=10 roff=100e8 von=.5 voff=2.2)
.model u1:i26:sw27:swa vswitch(ron=10 roff=100e8 von=.5 voff=2.2)
.model u1:i26:sw26:swb vswitch(ron=10 roff=100e8 von=2.2 voff=.5)
.model u1:i26:sw25:swb vswitch(ron=10 roff=100e8 von=2.2 voff=.5)
.model u1:i26:sw24:swb vswitch(ron=10 roff=100e8 von=2.2 voff=.5)
.model u1:i26:sw23:swa vswitch(ron=10 roff=100e8 von=.5 voff=2.2)
.model u1:i26:sw22:swb vswitch(ron=10 roff=100e8 von=2.2 voff=.5)
.model u1:i26:sw21:swa vswitch(ron=10 roff=100e8 von=.5 voff=2.2)
.model u1:i26:s22:swb vswitch(ron=10 roff=100e8 von=2.2 voff=.5)
.model u1:i26:s21:swa vswitch(ron=10 roff=100e8 von=.5 voff=2.2)
.model u1:i26:sw20:swb vswitch(ron=10 roff=100e8 von=2.2 voff=.5)
.model u1:i26:sw19:swa vswitch(ron=10 roff=100e8 von=.5 voff=2.2)
.model u1:i26:sw18:swa vswitch(ron=10 roff=100e8 von=.5 voff=2.2)
.model u1:i26:sw17:swb vswitch(ron=10 roff=100e8 von=2.2 voff=.5)
.model u1:i26:sw16:swa vswitch(ron=10 roff=100e8 von=.5 voff=2.2)
.model u1:i26:sw15:swb vswitch(ron=10 roff=100e8 von=2.2 voff=.5)
.model u1:i26:sw14:swb vswitch(ron=10 roff=100e8 von=2.2 voff=.5)
.model u1:i26:sw13:swa vswitch(ron=10 roff=100e8 von=.5 voff=2.2)
.model u1:i26:sw12:swb vswitch(ron=10 roff=100e8 von=2.2 voff=.5)
.model u1:i26:sw11:swa vswitch(ron=10 roff=100e8 von=.5 voff=2.2)
.model u1:i26:i9:swn vswitch(ron=1000 roff=10e6 von=2.2 voff=0.5)
.model u1:i26:i8:swn vswitch(ron=1000 roff=10e6 von=2.2 voff=0.5)
.model u1:i26:i10:i22:swn vswitch(ron=1000 roff=10e6 von=2.2 voff=0.5)
.model u1:i26:i10:i23:swn vswitch(ron=1000 roff=10e6 von=2.2 voff=0.5)
.model u1:i26:i10:i24:swn vswitch(ron=1000 roff=10e6 von=2.2 voff=0.5)
.model u1:i26:i10:i26:swp vswitch(ron=1000 roff=10e6 von=0.5 voff=2.2)
.model u1:i26:i10:i27:swp vswitch(ron=1000 roff=10e6 von=0.5 voff=2.2)
.model u1:i26:i10:i25:swp vswitch(ron=1000 roff=10e6 von=0.5 voff=2.2)
.model u1:i26:s12:swb vswitch(ron=10 roff=100e8 von=2.2 voff=.5)
.model u1:i26:s11:swa vswitch(ron=10 roff=100e8 von=.5 voff=2.2)
.model u1:i26:sw10:swb vswitch(ron=10 roff=100e8 von=2.2 voff=.5)
.model u1:i26:sw9:swa vswitch(ron=10 roff=100e8 von=.5 voff=2.2)
.model u1:i26:sw8:swa vswitch(ron=10 roff=100e8 von=.5 voff=2.2)
.model u1:i26:sw7:swb vswitch(ron=10 roff=100e8 von=2.2 voff=.5)
.model u1:i26:sw6:swb vswitch(ron=10 roff=100e8 von=2.2 voff=.5)
.model u1:i26:sw5:swa vswitch(ron=10 roff=100e8 von=.5 voff=2.2)
.model u1:i26:sw4:swa vswitch(ron=10 roff=100e8 von=.5 voff=2.2)
.model u1:i26:sw3:swb vswitch(ron=10 roff=100e8 von=2.2 voff=.5)
.model u1:i26:sw2:swb vswitch(ron=10 roff=100e8 von=2.2 voff=.5)
.model u1:i26:sw1:swa vswitch(ron=10 roff=100e8 von=.5 voff=2.2)
.ac oct 10 1 100meg
.end

solver = Normal
Maximum thread count: 16
tnom = 27
temp = 27
method = trap
Use3k4Notation = 0
Instance "m:u1:i26:5": Width narrower than recommended for a level 2 MOSFET.
Instance "m:u1:i26:6": Width narrower than recommended for a level 2 MOSFET.
Instance "m:u1:i25:5": Width narrower than recommended for a level 2 MOSFET.
Instance "m:u1:i25:6": Width narrower than recommended for a level 2 MOSFET.
Instance "m:u1:i24:5": Width narrower than recommended for a level 2 MOSFET.
Instance "m:u1:i24:6": Width narrower than recommended for a level 2 MOSFET.
Instance "m:u1:i23:5": Width narrower than recommended for a level 2 MOSFET.
Instance "m:u1:i23:6": Width narrower than recommended for a level 2 MOSFET.
Instance "m:u2:i26:5": Width narrower than recommended for a level 2 MOSFET.
Instance "m:u2:i26:6": Width narrower than recommended for a level 2 MOSFET.
Instance "m:u2:i25:5": Width narrower than recommended for a level 2 MOSFET.
Instance "m:u2:i25:6": Width narrower than recommended for a level 2 MOSFET.
Instance "m:u2:i24:5": Width narrower than recommended for a level 2 MOSFET.
Instance "m:u2:i24:6": Width narrower than recommended for a level 2 MOSFET.
Instance "m:u2:i23:5": Width narrower than recommended for a level 2 MOSFET.
Instance "m:u2:i23:6": Width narrower than recommended for a level 2 MOSFET.
Early termination of direct N-R iteration.
Direct Newton iteration failed to find .op point.  (Use ".option noopiter" to skip.)
Starting Gmin stepping
Gmin = 10
Gmin = 1.07374
Gmin = 0.115292
Gmin = 0.0123794
Gmin = 0.00132923
vernier = 0.5
vernier = 0.25
vernier = 0.125
Gmin = 0.000799929
vernier = 0.0625
vernier = 0.03125
vernier = 0.015625
vernier = 0.0078125
Gmin = 0.000807498
vernier = 0.00390625
vernier = 0.00195312
vernier = 0.000976562
vernier = 0.000488281
Gmin = 0.00080799
Gmin = 0
Gmin stepping failed

Starting source stepping with srcstepmethod=0
Source Step = 3.0303%
Source Step = 33.3333%
Source Step = 37.6894%
Source Step = 39.5833%
Source Step = 41.4773%
Source Step = 43.3712%
Source Step = 45.2652%
vernier = 0.09375
Source Step = 47.7273%
Source Step = 50.5682%
Source Step = 53.4091%
Source Step = 56.25%
Source Step = 59.0909%
vernier = 0.140625
Source Step = 62.642%
Source Step = 66.9034%
Source Step = 71.1648%
Source Step = 75.4261%
Source Step = 79.6875%
vernier = 0.210938
Source Step = 84.8011%
Source Step = 91.1932%
Source Step = 97.5852%
Source stepping succeeded in finding the operating point.

Ignoring empty pin current: Ix(i26:1)
Ignoring empty pin current: Ix(i26:2)
Ignoring empty pin current: Ix(i26:11)
Ignoring empty pin current: Ix(i26:12)
Ignoring empty pin current: Ix(i26:25)
Ignoring empty pin current: Ix(i26:100)
Ignoring empty pin current: Ix(i26:9)
Ignoring empty pin current: Ix(i25:1)
Ignoring empty pin current: Ix(i25:2)
Ignoring empty pin current: Ix(i25:11)
Ignoring empty pin current: Ix(i25:12)
Ignoring empty pin current: Ix(i25:25)
Ignoring empty pin current: Ix(i25:100)
Ignoring empty pin current: Ix(i25:9)
Ignoring empty pin current: Ix(i24:1)
Ignoring empty pin current: Ix(i24:2)
Ignoring empty pin current: Ix(i24:11)
Ignoring empty pin current: Ix(i24:12)
Ignoring empty pin current: Ix(i24:25)
Ignoring empty pin current: Ix(i24:100)
Ignoring empty pin current: Ix(i24:9)
Ignoring empty pin current: Ix(i23:1)
Ignoring empty pin current: Ix(i23:2)
Ignoring empty pin current: Ix(i23:11)
Ignoring empty pin current: Ix(i23:12)
Ignoring empty pin current: Ix(i23:25)
Ignoring empty pin current: Ix(i23:100)
Ignoring empty pin current: Ix(i23:9)
Ignoring empty pin current: Ix(s2:1)
Ignoring empty pin current: Ix(s2:2)
Ignoring empty pin current: Ix(s2:3)
Ignoring empty pin current: Ix(s1:1)
Ignoring empty pin current: Ix(s1:2)
Ignoring empty pin current: Ix(s1:3)
Ignoring empty pin current: Ix(i22:1)
Ignoring empty pin current: Ix(i22:4)
Ignoring empty pin current: Ix(i22:8)
Ignoring empty pin current: Ix(i22:2)
Ignoring empty pin current: Ix(u1:100)
Ignoring empty pin current: Ix(u1:8)
Ignoring empty pin current: Ix(u1:9)
Ignoring empty pin current: Ix(u1:16)
Ignoring empty pin current: Ix(u2:100)
Ignoring empty pin current: Ix(u2:8)
Ignoring empty pin current: Ix(u2:9)
Ignoring empty pin current: Ix(u2:16)
Ignoring empty pin current: Ix(i26:1)
Ignoring empty pin current: Ix(i26:2)
Ignoring empty pin current: Ix(i26:11)
Ignoring empty pin current: Ix(i26:12)
Ignoring empty pin current: Ix(i26:25)
Ignoring empty pin current: Ix(i26:100)
Ignoring empty pin current: Ix(i26:9)
Ignoring empty pin current: Ix(i25:1)
Ignoring empty pin current: Ix(i25:2)
Ignoring empty pin current: Ix(i25:11)
Ignoring empty pin current: Ix(i25:12)
Ignoring empty pin current: Ix(i25:25)
Ignoring empty pin current: Ix(i25:100)
Ignoring empty pin current: Ix(i25:9)
Ignoring empty pin current: Ix(i24:1)
Ignoring empty pin current: Ix(i24:2)
Ignoring empty pin current: Ix(i24:11)
Ignoring empty pin current: Ix(i24:12)
Ignoring empty pin current: Ix(i24:25)
Ignoring empty pin current: Ix(i24:100)
Ignoring empty pin current: Ix(i24:9)
Ignoring empty pin current: Ix(i23:1)
Ignoring empty pin current: Ix(i23:2)
Ignoring empty pin current: Ix(i23:11)
Ignoring empty pin current: Ix(i23:12)
Ignoring empty pin current: Ix(i23:25)
Ignoring empty pin current: Ix(i23:100)
Ignoring empty pin current: Ix(i23:9)
Ignoring empty pin current: Ix(s2:1)
Ignoring empty pin current: Ix(s2:2)
Ignoring empty pin current: Ix(s2:3)
Ignoring empty pin current: Ix(s1:1)
Ignoring empty pin current: Ix(s1:2)
Ignoring empty pin current: Ix(s1:3)
Ignoring empty pin current: Ix(i22:1)
Ignoring empty pin current: Ix(i22:4)
Ignoring empty pin current: Ix(i22:8)
Ignoring empty pin current: Ix(i22:2)
Ignoring empty pin current: Ix(u1:100)
Ignoring empty pin current: Ix(u1:8)
Ignoring empty pin current: Ix(u1:9)
Ignoring empty pin current: Ix(u1:16)
Ignoring empty pin current: Ix(u2:100)
Ignoring empty pin current: Ix(u2:8)
Ignoring empty pin current: Ix(u2:9)
Ignoring empty pin current: Ix(u2:16)
Total elapsed time: 0.820 seconds.

